 Oulanka_with_lake         SWAT+ 2024-07-08        MODULAR Rev 2024.61.0.1                                
                                        zmx       usle_k       sumfc       sumul      usle_p     usle_ls        esco        epco     cn3_swf       perco     latq_co   tiledrain 
 sname           hydgrp                 (mm)                    (mm)        (mm)                                                                                     0=notile;1=tile;
MR              C                  2000.0000      0.0000    367.6800    770.4971      1.0000      0.7429      0.9500      0.5000      0.9500      0.5000      0.0100           0
SRHK            B                  2000.0000      0.0000    368.1000    827.8243      1.0000      0.5656      0.9500      0.5000      0.9500      0.9000      0.0100           0
KA              C                  2000.0000      0.0000    394.4000    871.2264      1.0000      0.7771      0.9500      0.5000      0.9500      0.5000      0.0100           0
SRHK            B                  2000.0000      0.0000    368.1000    827.8243      1.0000      0.5614      0.9500      0.5000      0.9500      0.9000      0.0100           0
SRHK            B                  2000.0000      0.0000    368.1000    827.8243      1.0000      0.7212      0.9500      0.5000      0.9500      0.9000      0.0100           0
VE              B                  2000.0000      0.0000    239.7100    767.6327      1.0000      0.2327      0.9500      0.5000      0.9500      0.9000      0.0100           0
SRHK            B                  2000.0000      0.0000    368.1000    827.8243      1.0000      0.6543      0.9500      0.5000      0.9500      0.9000      0.0100           0
SRHK            B                  2000.0000      0.0000    368.1000    827.8243      1.0000      0.1889      0.9500      0.5000      0.9500      0.9000      0.0100           0
SRHK            B                  2000.0000      0.0000    368.1000    827.8243      1.0000      0.6352      0.9500      0.5000      0.9500      0.9000      0.0100           0
SRHK            B                  2000.0000      0.0000    368.1000    827.8243      1.0000      0.1858      0.9500      0.5000      0.9500      0.9000      0.0100           0
SRHK            B                  2000.0000      0.0000    368.1000    827.8243      1.0000      0.6426      0.9500      0.5000      0.9500      0.9000      0.0100           0
VE              B                  2000.0000      0.0000    239.7100    767.6327      1.0000      0.2755      0.9500      0.5000      0.9500      0.9000      0.0100           0
SRHK            B                  2000.0000      0.0000    368.1000    827.8243      1.0000      0.6502      0.9500      0.5000      0.9500      0.9000      0.0100           0
MR              C                  2000.0000      0.0000    367.6800    770.4971      1.0000      0.8028      0.9500      0.5000      0.9500      0.5000      0.0100           0
VE              B                  2000.0000      0.0000    239.7100    767.6327      1.0000      0.1479      0.9500      0.5000      0.9500      0.9000      0.0100           0
HM              C                  2000.0000      0.0000    273.2450    738.6061      1.0000      0.5027      0.9500      0.5000      0.9500      0.5000      0.0100           0
SRHK            B                  2000.0000      0.0000    368.1000    827.8243      1.0000      0.6360      0.9500      0.5000      0.9500      0.9000      0.0100           0
SRHK            B                  2000.0000      0.0000    368.1000    827.8243      1.0000      0.5651      0.9500      0.5000      0.9500      0.9000      0.0100           0
SRHK            B                  2000.0000      0.0000    368.1000    827.8243      1.0000      0.5040      0.9500      0.5000      0.9500      0.9000      0.0100           0
SRHK            B                  2000.0000      0.0000    368.1000    827.8243      1.0000      0.7028      0.9500      0.5000      0.9500      0.9000      0.0100           0
MR              C                  2000.0000      0.0000    367.6800    770.4971      1.0000      0.7540      0.9500      0.5000      0.9500      0.5000      0.0100           0
VE              B                  2000.0000      0.0000    239.7100    767.6327      1.0000      0.3617      0.9500      0.5000      0.9500      0.9000      0.0100           0
VE              B                  2000.0000      0.0000    239.7100    767.6327      1.0000      0.1080      0.9500      0.5000      0.9500      0.9000      0.0100           0
TU              B                  2000.0000      0.0000    274.2850    716.2769      1.0000      0.0654      0.9500      0.5000      0.9500      0.9000      0.0100           0
TU              B                  2000.0000      0.0000    274.2850    716.2769      1.0000      0.1514      0.9500      0.5000      0.9500      0.9000      0.0100           0
VE              B                  2000.0000      0.0000    239.7100    767.6327      1.0000      0.1574      0.9500      0.5000      0.9500      0.9000      0.0100           0
HM              C                  2000.0000      0.0000    273.2450    738.6061      1.0000      0.5945      0.9500      0.5000      0.9500      0.5000      0.0100           0
HM              C                  2000.0000      0.0000    273.2450    738.6061      1.0000      0.1271      0.9500      0.5000      0.9500      0.5000      0.0100           0
MR              C                  2000.0000      0.0000    367.6800    770.4971      1.0000      0.6533      0.9500      0.5000      0.9500      0.5000      0.0100           0
MR              C                  2000.0000      0.0000    367.6800    770.4971      1.0000      0.6771      0.9500      0.5000      0.9500      0.5000      0.0100           0
HM              C                  2000.0000      0.0000    273.2450    738.6061      1.0000      0.7233      0.9500      0.5000      0.9500      0.5000      0.0100           0
MR              C                  2000.0000      0.0000    367.6800    770.4971      1.0000      0.7218      0.9500      0.5000      0.9500      0.5000      0.0100           0
MR              C                  2000.0000      0.0000    367.6800    770.4971      1.0000      0.7468      0.9500      0.5000      0.9500      0.5000      0.0100           0
MR              C                  2000.0000      0.0000    367.6800    770.4971      1.0000      0.6477      0.9500      0.5000      0.9500      0.5000      0.0100           0
TU              B                  2000.0000      0.0000    274.2850    716.2769      1.0000      0.4159      0.9500      0.5000      0.9500      0.9000      0.0100           0
TU              B                  2000.0000      0.0000    274.2850    716.2769      1.0000      0.5068      0.9500      0.5000      0.9500      0.9000      0.0100           0
MR              C                  2000.0000      0.0000    367.6800    770.4971      1.0000      0.6288      0.9500      0.5000      0.9500      0.5000      0.0100           0
TU              B                  2000.0000      0.0000    274.2850    716.2769      1.0000      0.5860      0.9500      0.5000      0.9500      0.9000      0.0100           0
MR              C                  2000.0000      0.0000    367.6800    770.4971      1.0000      0.6096      0.9500      0.5000      0.9500      0.5000      0.0100           0
TU              B                  2000.0000      0.0000    274.2850    716.2769      1.0000      0.3362      0.9500      0.5000      0.9500      0.9000      0.0100           0
TU              B                  2000.0000      0.0000    274.2850    716.2769      1.0000      0.3934      0.9500      0.5000      0.9500      0.9000      0.0100           0
TU              B                  2000.0000      0.0000    274.2850    716.2769      1.0000      0.0650      0.9500      0.5000      0.9500      0.9000      0.0100           0
MR              C                  2000.0000      0.0000    367.6800    770.4971      1.0000      0.5378      0.9500      0.5000      0.9500      0.5000      0.0100           0
MR              C                  2000.0000      0.0000    367.6800    770.4971      1.0000      0.5492      0.9500      0.5000      0.9500      0.5000      0.0100           0
MR              C                  2000.0000      0.0000    367.6800    770.4971      1.0000      0.6205      0.9500      0.5000      0.9500      0.5000      0.0100           0
MR              C                  2000.0000      0.0000    367.6800    770.4971      1.0000      0.3908      0.9500      0.5000      0.9500      0.5000      0.0100           0
MR              C                  2000.0000      0.0000    367.6800    770.4971      1.0000      0.7826      0.9500      0.5000      0.9500      0.5000      0.0100           0
MR              C                  2000.0000      0.0000    367.6800    770.4971      1.0000      0.4906      0.9500      0.5000      0.9500      0.5000      0.0100           0
TU              B                  2000.0000      0.0000    274.2850    716.2769      1.0000      0.6537      0.9500      0.5000      0.9500      0.9000      0.0100           0
TU              B                  2000.0000      0.0000    274.2850    716.2769      1.0000      0.4875      0.9500      0.5000      0.9500      0.9000      0.0100           0
MR              C                  2000.0000      0.0000    367.6800    770.4971      1.0000      0.6414      0.9500      0.5000      0.9500      0.5000      0.0100           0
TU              B                  2000.0000      0.0000    274.2850    716.2769      1.0000      0.4942      0.9500      0.5000      0.9500      0.9000      0.0100           0
MR              C                  2000.0000      0.0000    367.6800    770.4971      1.0000      0.5602      0.9500      0.5000      0.9500      0.5000      0.0100           0
MR              C                  2000.0000      0.0000    367.6800    770.4971      1.0000      0.5168      0.9500      0.5000      0.9500      0.5000      0.0100           0
MR              C                  2000.0000      0.0000    367.6800    770.4971      1.0000      0.6001      0.9500      0.5000      0.9500      0.5000      0.0100           0
MR              C                  2000.0000      0.0000    367.6800    770.4971      1.0000      0.9607      0.9500      0.5000      0.9500      0.5000      0.0100           0
MR              C                  2000.0000      0.0000    367.6800    770.4971      1.0000      0.6035      0.9500      0.5000      0.9500      0.5000      0.0100           0
MR              C                  2000.0000      0.0000    367.6800    770.4971      1.0000      0.7124      0.9500      0.5000      0.9500      0.5000      0.0100           0
MR              C                  2000.0000      0.0000    367.6800    770.4971      1.0000      0.0650      0.9500      0.5000      0.9500      0.5000      0.0100           0
MR              C                  2000.0000      0.0000    367.6800    770.4971      1.0000      0.4340      0.9500      0.5000      0.9500      0.5000      0.0100           0
KM              C                  2000.0000      0.0000    386.4500    795.2902      1.0000      0.4527      0.9500      0.5000      0.9500      0.5000      0.0100           0
MR              C                  2000.0000      0.0000    367.6800    770.4971      1.0000      0.8544      0.9500      0.5000      0.9500      0.5000      0.0100           0
MR              C                  2000.0000      0.0000    367.6800    770.4971      1.0000      0.8921      0.9500      0.5000      0.9500      0.5000      0.0100           0
MR              C                  2000.0000      0.0000    367.6800    770.4971      1.0000      0.5636      0.9500      0.5000      0.9500      0.5000      0.0100           0
SRHK            B                  2000.0000      0.0000    368.1000    827.8243      1.0000      0.7510      0.9500      0.5000      0.9500      0.9000      0.0100           0
SRHK            B                  2000.0000      0.0000    368.1000    827.8243      1.0000      0.7433      0.9500      0.5000      0.9500      0.9000      0.0100           0
HM              C                  2000.0000      0.0000    273.2450    738.6061      1.0000      0.5690      0.9500      0.5000      0.9500      0.5000      0.0100           0
SRHK            B                  2000.0000      0.0000    368.1000    827.8243      1.0000      0.5479      0.9500      0.5000      0.9500      0.9000      0.0100           0
SRHK            B                  2000.0000      0.0000    368.1000    827.8243      1.0000      0.5590      0.9500      0.5000      0.9500      0.9000      0.0100           0
SRHK            B                  2000.0000      0.0000    368.1000    827.8243      1.0000      0.4980      0.9500      0.5000      0.9500      0.9000      0.0100           0
SRHK            B                  2000.0000      0.0000    368.1000    827.8243      1.0000      0.5506      0.9500      0.5000      0.9500      0.9000      0.0100           0
SRHK            B                  2000.0000      0.0000    368.1000    827.8243      1.0000      0.4942      0.9500      0.5000      0.9500      0.9000      0.0100           0
SRHK            B                  2000.0000      0.0000    368.1000    827.8243      1.0000      0.5366      0.9500      0.5000      0.9500      0.9000      0.0100           0
TU              B                  2000.0000      0.0000    274.2850    716.2769      1.0000      0.4522      0.9500      0.5000      0.9500      0.9000      0.0100           0
MR              C                  2000.0000      0.0000    367.6800    770.4971      1.0000      0.5526      0.9500      0.5000      0.9500      0.5000      0.0100           0
MR              C                  2000.0000      0.0000    367.6800    770.4971      1.0000      0.4218      0.9500      0.5000      0.9500      0.5000      0.0100           0
MR              C                  2000.0000      0.0000    367.6800    770.4971      1.0000      0.4537      0.9500      0.5000      0.9500      0.5000      0.0100           0
MR              C                  2000.0000      0.0000    367.6800    770.4971      1.0000      0.0664      0.9500      0.5000      0.9500      0.5000      0.0100           0
MR              C                  2000.0000      0.0000    367.6800    770.4971      1.0000      0.4861      0.9500      0.5000      0.9500      0.5000      0.0100           0
HM              C                  2000.0000      0.0000    273.2450    738.6061      1.0000      0.3386      0.9500      0.5000      0.9500      0.5000      0.0100           0
KM              C                  2000.0000      0.0000    386.4500    795.2902      1.0000      0.5917      0.9500      0.5000      0.9500      0.5000      0.0100           0
MR              C                  2000.0000      0.0000    367.6800    770.4971      1.0000      0.6000      0.9500      0.5000      0.9500      0.5000      0.0100           0
KM              C                  2000.0000      0.0000    386.4500    795.2902      1.0000      0.5651      0.9500      0.5000      0.9500      0.5000      0.0100           0
MR              C                  2000.0000      0.0000    367.6800    770.4971      1.0000      0.6835      0.9500      0.5000      0.9500      0.5000      0.0100           0
KM              C                  2000.0000      0.0000    386.4500    795.2902      1.0000      0.5387      0.9500      0.5000      0.9500      0.5000      0.0100           0
MR              C                  2000.0000      0.0000    367.6800    770.4971      1.0000      0.6277      0.9500      0.5000      0.9500      0.5000      0.0100           0
KM              C                  2000.0000      0.0000    386.4500    795.2902      1.0000      0.6471      0.9500      0.5000      0.9500      0.5000      0.0100           0
MR              C                  2000.0000      0.0000    367.6800    770.4971      1.0000      0.5732      0.9500      0.5000      0.9500      0.5000      0.0100           0
VE              B                  2000.0000      0.0000    239.7100    767.6327      1.0000      0.4156      0.9500      0.5000      0.9500      0.9000      0.0100           0
MR              C                  2000.0000      0.0000    367.6800    770.4971      1.0000      0.6089      0.9500      0.5000      0.9500      0.5000      0.0100           0
VE              B                  2000.0000      0.0000    239.7100    767.6327      1.0000      0.3273      0.9500      0.5000      0.9500      0.9000      0.0100           0
MR              C                  2000.0000      0.0000    367.6800    770.4971      1.0000      0.6315      0.9500      0.5000      0.9500      0.5000      0.0100           0
MR              C                  2000.0000      0.0000    367.6800    770.4971      1.0000      0.5348      0.9500      0.5000      0.9500      0.5000      0.0100           0
KM              C                  2000.0000      0.0000    386.4500    795.2902      1.0000      0.3446      0.9500      0.5000      0.9500      0.5000      0.0100           0
MR              C                  2000.0000      0.0000    367.6800    770.4971      1.0000      0.5372      0.9500      0.5000      0.9500      0.5000      0.0100           0
TU              B                  2000.0000      0.0000    274.2850    716.2769      1.0000      0.7475      0.9500      0.5000      0.9500      0.9000      0.0100           0
KM              C                  2000.0000      0.0000    386.4500    795.2902      1.0000      0.4038      0.9500      0.5000      0.9500      0.5000      0.0100           0
KM              C                  2000.0000      0.0000    386.4500    795.2902      1.0000      0.0751      0.9500      0.5000      0.9500      0.5000      0.0100           0
MR              C                  2000.0000      0.0000    367.6800    770.4971      1.0000      0.8260      0.9500      0.5000      0.9500      0.5000      0.0100           0
TU              B                  2000.0000      0.0000    274.2850    716.2769      1.0000      0.5473      0.9500      0.5000      0.9500      0.9000      0.0100           0
VE              B                  2000.0000      0.0000    239.7100    767.6327      1.0000      0.0715      0.9500      0.5000      0.9500      0.9000      0.0100           0
MR              C                  2000.0000      0.0000    367.6800    770.4971      1.0000      0.6115      0.9500      0.5000      0.9500      0.5000      0.0100           0
KM              C                  2000.0000      0.0000    386.4500    795.2902      1.0000      0.5083      0.9500      0.5000      0.9500      0.5000      0.0100           0
TU              B                  2000.0000      0.0000    274.2850    716.2769      1.0000      0.5355      0.9500      0.5000      0.9500      0.9000      0.0100           0
TU              B                  2000.0000      0.0000    274.2850    716.2769      1.0000      0.6739      0.9500      0.5000      0.9500      0.9000      0.0100           0
KM              C                  2000.0000      0.0000    386.4500    795.2902      1.0000      0.5658      0.9500      0.5000      0.9500      0.5000      0.0100           0
MR              C                  2000.0000      0.0000    367.6800    770.4971      1.0000      0.6810      0.9500      0.5000      0.9500      0.5000      0.0100           0
KM              C                  2000.0000      0.0000    386.4500    795.2902      1.0000      0.3940      0.9500      0.5000      0.9500      0.5000      0.0100           0
MR              C                  2000.0000      0.0000    367.6800    770.4971      1.0000      0.4911      0.9500      0.5000      0.9500      0.5000      0.0100           0
KM              C                  2000.0000      0.0000    386.4500    795.2902      1.0000      0.5248      0.9500      0.5000      0.9500      0.5000      0.0100           0
TU              B                  2000.0000      0.0000    274.2850    716.2769      1.0000      0.7026      0.9500      0.5000      0.9500      0.9000      0.0100           0
MR              C                  2000.0000      0.0000    367.6800    770.4971      1.0000      0.6311      0.9500      0.5000      0.9500      0.5000      0.0100           0
MR              C                  2000.0000      0.0000    367.6800    770.4971      1.0000      0.5477      0.9500      0.5000      0.9500      0.5000      0.0100           0
KM              C                  2000.0000      0.0000    386.4500    795.2902      1.0000      0.4402      0.9500      0.5000      0.9500      0.5000      0.0100           0
MR              C                  2000.0000      0.0000    367.6800    770.4971      1.0000      0.6634      0.9500      0.5000      0.9500      0.5000      0.0100           0
MR              C                  2000.0000      0.0000    367.6800    770.4971      1.0000      0.5425      0.9500      0.5000      0.9500      0.5000      0.0100           0
MR              C                  2000.0000      0.0000    367.6800    770.4971      1.0000      0.4722      0.9500      0.5000      0.9500      0.5000      0.0100           0
MR              C                  2000.0000      0.0000    367.6800    770.4971      1.0000      0.5802      0.9500      0.5000      0.9500      0.5000      0.0100           0
MR              C                  2000.0000      0.0000    367.6800    770.4971      1.0000      0.0650      0.9500      0.5000      0.9500      0.5000      0.0100           0
KM              C                  2000.0000      0.0000    386.4500    795.2902      1.0000      0.6801      0.9500      0.5000      0.9500      0.5000      0.0100           0
MR              C                  2000.0000      0.0000    367.6800    770.4971      1.0000      0.0650      0.9500      0.5000      0.9500      0.5000      0.0100           0
MR              C                  2000.0000      0.0000    367.6800    770.4971      1.0000      0.4636      0.9500      0.5000      0.9500      0.5000      0.0100           0
MR              C                  2000.0000      0.0000    367.6800    770.4971      1.0000      0.6028      0.9500      0.5000      0.9500      0.5000      0.0100           0
TU              B                  2000.0000      0.0000    274.2850    716.2769      1.0000      0.5841      0.9500      0.5000      0.9500      0.9000      0.0100           0
MR              C                  2000.0000      0.0000    367.6800    770.4971      1.0000      0.5445      0.9500      0.5000      0.9500      0.5000      0.0100           0
TU              B                  2000.0000      0.0000    274.2850    716.2769      1.0000      0.5894      0.9500      0.5000      0.9500      0.9000      0.0100           0
MR              C                  2000.0000      0.0000    367.6800    770.4971      1.0000      0.7200      0.9500      0.5000      0.9500      0.5000      0.0100           0
MR              C                  2000.0000      0.0000    367.6800    770.4971      1.0000      0.3880      0.9500      0.5000      0.9500      0.5000      0.0100           0
TU              B                  2000.0000      0.0000    274.2850    716.2769      1.0000      0.7398      0.9500      0.5000      0.9500      0.9000      0.0100           0
MR              C                  2000.0000      0.0000    367.6800    770.4971      1.0000      0.9574      0.9500      0.5000      0.9500      0.5000      0.0100           0
MR              C                  2000.0000      0.0000    367.6800    770.4971      1.0000      0.4390      0.9500      0.5000      0.9500      0.5000      0.0100           0
MR              C                  2000.0000      0.0000    367.6800    770.4971      1.0000      0.5048      0.9500      0.5000      0.9500      0.5000      0.0100           0
KM              C                  2000.0000      0.0000    386.4500    795.2902      1.0000      0.5892      0.9500      0.5000      0.9500      0.5000      0.0100           0
MR              C                  2000.0000      0.0000    367.6800    770.4971      1.0000      0.6255      0.9500      0.5000      0.9500      0.5000      0.0100           0
MR              C                  2000.0000      0.0000    367.6800    770.4971      1.0000      0.9742      0.9500      0.5000      0.9500      0.5000      0.0100           0
MR              C                  2000.0000      0.0000    367.6800    770.4971      1.0000      0.7979      0.9500      0.5000      0.9500      0.5000      0.0100           0
MR              C                  2000.0000      0.0000    367.6800    770.4971      1.0000      0.6248      0.9500      0.5000      0.9500      0.5000      0.0100           0
KM              C                  2000.0000      0.0000    386.4500    795.2902      1.0000      0.5110      0.9500      0.5000      0.9500      0.5000      0.0100           0
VE              B                  2000.0000      0.0000    239.7100    767.6327      1.0000      0.2027      0.9500      0.5000      0.9500      0.9000      0.0100           0
SRHK            B                  2000.0000      0.0000    368.1000    827.8243      1.0000      0.6591      0.9500      0.5000      0.9500      0.9000      0.0100           0
SRHK            B                  2000.0000      0.0000    368.1000    827.8243      1.0000      0.6174      0.9500      0.5000      0.9500      0.9000      0.0100           0
SRHK            B                  2000.0000      0.0000    368.1000    827.8243      1.0000      1.0950      0.9500      0.5000      0.9500      0.9000      0.0100           0
SRHK            B                  2000.0000      0.0000    368.1000    827.8243      1.0000      0.5391      0.9500      0.5000      0.9500      0.9000      0.0100           0
SRHK            B                  2000.0000      0.0000    368.1000    827.8243      1.0000      0.9169      0.9500      0.5000      0.9500      0.9000      0.0100           0
SRHK            B                  2000.0000      0.0000    368.1000    827.8243      1.0000      0.8426      0.9500      0.5000      0.9500      0.9000      0.0100           0
SRHK            B                  2000.0000      0.0000    368.1000    827.8243      1.0000      0.7532      0.9500      0.5000      0.9500      0.9000      0.0100           0
SRHK            B                  2000.0000      0.0000    368.1000    827.8243      1.0000      0.5801      0.9500      0.5000      0.9500      0.9000      0.0100           0
SRHK            B                  2000.0000      0.0000    368.1000    827.8243      1.0000      0.9902      0.9500      0.5000      0.9500      0.9000      0.0100           0
SRHK            B                  2000.0000      0.0000    368.1000    827.8243      1.0000      0.6620      0.9500      0.5000      0.9500      0.9000      0.0100           0
TU              B                  2000.0000      0.0000    274.2850    716.2769      1.0000      0.5101      0.9500      0.5000      0.9500      0.9000      0.0100           0
SRHK            B                  2000.0000      0.0000    368.1000    827.8243      1.0000      0.6808      0.9500      0.5000      0.9500      0.9000      0.0100           0
SRHK            B                  2000.0000      0.0000    368.1000    827.8243      1.0000      0.6728      0.9500      0.5000      0.9500      0.9000      0.0100           0
SRHK            B                  2000.0000      0.0000    368.1000    827.8243      1.0000      0.4110      0.9500      0.5000      0.9500      0.9000      0.0100           0
SRHK            B                  2000.0000      0.0000    368.1000    827.8243      1.0000      0.1979      0.9500      0.5000      0.9500      0.9000      0.0100           0
SRHK            B                  2000.0000      0.0000    368.1000    827.8243      1.0000      0.5251      0.9500      0.5000      0.9500      0.9000      0.0100           0
HM              C                  2000.0000      0.0000    273.2450    738.6061      1.0000      0.2752      0.9500      0.5000      0.9500      0.5000      0.0100           0
SRHK            B                  2000.0000      0.0000    368.1000    827.8243      1.0000      0.5514      0.9500      0.5000      0.9500      0.9000      0.0100           0
SRHK            B                  2000.0000      0.0000    368.1000    827.8243      1.0000      0.6017      0.9500      0.5000      0.9500      0.9000      0.0100           0
SRHK            B                  2000.0000      0.0000    368.1000    827.8243      1.0000      0.7800      0.9500      0.5000      0.9500      0.9000      0.0100           0
KA              C                  2000.0000      0.0000    394.4000    871.2264      1.0000      0.6550      0.9500      0.5000      0.9500      0.5000      0.0100           0
MRHM            B                  2000.0000      0.0000    374.8550    833.5140      1.0000      0.6155      0.9500      0.5000      0.9500      0.9000      0.0100           0
MR              C                  2000.0000      0.0000    367.6800    770.4971      1.0000      0.8714      0.9500      0.5000      0.9500      0.5000      0.0100           0
MRHM            B                  2000.0000      0.0000    374.8550    833.5140      1.0000      0.7059      0.9500      0.5000      0.9500      0.9000      0.0100           0
SRHK            B                  2000.0000      0.0000    368.1000    827.8243      1.0000      0.2925      0.9500      0.5000      0.9500      0.9000      0.0100           0
MR              C                  2000.0000      0.0000    367.6800    770.4971      1.0000      0.3446      0.9500      0.5000      0.9500      0.5000      0.0100           0
MR              C                  2000.0000      0.0000    367.6800    770.4971      1.0000      0.4400      0.9500      0.5000      0.9500      0.5000      0.0100           0
SRHK            B                  2000.0000      0.0000    368.1000    827.8243      1.0000      0.3986      0.9500      0.5000      0.9500      0.9000      0.0100           0
MR              C                  2000.0000      0.0000    367.6800    770.4971      1.0000      0.6974      0.9500      0.5000      0.9500      0.5000      0.0100           0
MR              C                  2000.0000      0.0000    367.6800    770.4971      1.0000      0.5501      0.9500      0.5000      0.9500      0.5000      0.0100           0
MR              C                  2000.0000      0.0000    367.6800    770.4971      1.0000      0.4293      0.9500      0.5000      0.9500      0.5000      0.0100           0
TU              B                  2000.0000      0.0000    274.2850    716.2769      1.0000      0.3943      0.9500      0.5000      0.9500      0.9000      0.0100           0
TU              B                  2000.0000      0.0000    274.2850    716.2769      1.0000      0.3198      0.9500      0.5000      0.9500      0.9000      0.0100           0
TU              B                  2000.0000      0.0000    274.2850    716.2769      1.0000      0.1338      0.9500      0.5000      0.9500      0.9000      0.0100           0
SRHK            B                  2000.0000      0.0000    368.1000    827.8243      1.0000      0.9065      0.9500      0.5000      0.9500      0.9000      0.0100           0
SRHK            B                  2000.0000      0.0000    368.1000    827.8243      1.0000      0.5725      0.9500      0.5000      0.9500      0.9000      0.0100           0
SRHK            B                  2000.0000      0.0000    368.1000    827.8243      1.0000      0.6207      0.9500      0.5000      0.9500      0.9000      0.0100           0
TU              B                  2000.0000      0.0000    274.2850    716.2769      1.0000      0.5306      0.9500      0.5000      0.9500      0.9000      0.0100           0
SRHK            B                  2000.0000      0.0000    368.1000    827.8243      1.0000      0.7839      0.9500      0.5000      0.9500      0.9000      0.0100           0
SRHK            B                  2000.0000      0.0000    368.1000    827.8243      1.0000      0.5387      0.9500      0.5000      0.9500      0.9000      0.0100           0
SRHK            B                  2000.0000      0.0000    368.1000    827.8243      1.0000      0.9542      0.9500      0.5000      0.9500      0.9000      0.0100           0
MR              C                  2000.0000      0.0000    367.6800    770.4971      1.0000      0.4237      0.9500      0.5000      0.9500      0.5000      0.0100           0
MR              C                  2000.0000      0.0000    367.6800    770.4971      1.0000      0.3616      0.9500      0.5000      0.9500      0.5000      0.0100           0
MR              C                  2000.0000      0.0000    367.6800    770.4971      1.0000      0.3573      0.9500      0.5000      0.9500      0.5000      0.0100           0
TU              B                  2000.0000      0.0000    274.2850    716.2769      1.0000      0.3128      0.9500      0.5000      0.9500      0.9000      0.0100           0
MR              C                  2000.0000      0.0000    367.6800    770.4971      1.0000      0.5832      0.9500      0.5000      0.9500      0.5000      0.0100           0
SRHK            B                  2000.0000      0.0000    368.1000    827.8243      1.0000      0.5411      0.9500      0.5000      0.9500      0.9000      0.0100           0
SRHK            B                  2000.0000      0.0000    368.1000    827.8243      1.0000      0.6261      0.9500      0.5000      0.9500      0.9000      0.0100           0
SRHK            B                  2000.0000      0.0000    368.1000    827.8243      1.0000      0.5525      0.9500      0.5000      0.9500      0.9000      0.0100           0
HM              C                  2000.0000      0.0000    273.2450    738.6061      1.0000      0.3948      0.9500      0.5000      0.9500      0.5000      0.0100           0
SRHK            B                  2000.0000      0.0000    368.1000    827.8243      1.0000      0.9974      0.9500      0.5000      0.9500      0.9000      0.0100           0
HM              C                  2000.0000      0.0000    273.2450    738.6061      1.0000      0.0663      0.9500      0.5000      0.9500      0.5000      0.0100           0
HM              C                  2000.0000      0.0000    273.2450    738.6061      1.0000      0.2760      0.9500      0.5000      0.9500      0.5000      0.0100           0
SRHK            B                  2000.0000      0.0000    368.1000    827.8243      1.0000      0.7049      0.9500      0.5000      0.9500      0.9000      0.0100           0
SRHK            B                  2000.0000      0.0000    368.1000    827.8243      1.0000      0.5954      0.9500      0.5000      0.9500      0.9000      0.0100           0
SRHK            B                  2000.0000      0.0000    368.1000    827.8243      1.0000      0.5129      0.9500      0.5000      0.9500      0.9000      0.0100           0
MR              C                  2000.0000      0.0000    367.6800    770.4971      1.0000      0.4421      0.9500      0.5000      0.9500      0.5000      0.0100           0
SRHK            B                  2000.0000      0.0000    368.1000    827.8243      1.0000      0.5875      0.9500      0.5000      0.9500      0.9000      0.0100           0
SRHK            B                  2000.0000      0.0000    368.1000    827.8243      1.0000      0.6949      0.9500      0.5000      0.9500      0.9000      0.0100           0
SRHK            B                  2000.0000      0.0000    368.1000    827.8243      1.0000      0.6262      0.9500      0.5000      0.9500      0.9000      0.0100           0
MR              C                  2000.0000      0.0000    367.6800    770.4971      1.0000      0.7317      0.9500      0.5000      0.9500      0.5000      0.0100           0
MR              C                  2000.0000      0.0000    367.6800    770.4971      1.0000      0.3362      0.9500      0.5000      0.9500      0.5000      0.0100           0
MR              C                  2000.0000      0.0000    367.6800    770.4971      1.0000      0.3389      0.9500      0.5000      0.9500      0.5000      0.0100           0
MR              C                  2000.0000      0.0000    367.6800    770.4971      1.0000      0.3206      0.9500      0.5000      0.9500      0.5000      0.0100           0
MR              C                  2000.0000      0.0000    367.6800    770.4971      1.0000      0.0650      0.9500      0.5000      0.9500      0.5000      0.0100           0
MR              C                  2000.0000      0.0000    367.6800    770.4971      1.0000      0.0650      0.9500      0.5000      0.9500      0.5000      0.0100           0
MR              C                  2000.0000      0.0000    367.6800    770.4971      1.0000      0.6646      0.9500      0.5000      0.9500      0.5000      0.0100           0
MR              C                  2000.0000      0.0000    367.6800    770.4971      1.0000      0.4961      0.9500      0.5000      0.9500      0.5000      0.0100           0
MR              C                  2000.0000      0.0000    367.6800    770.4971      1.0000      0.4156      0.9500      0.5000      0.9500      0.5000      0.0100           0
TU              B                  2000.0000      0.0000    274.2850    716.2769      1.0000      0.1593      0.9500      0.5000      0.9500      0.9000      0.0100           0
MRHM            B                  2000.0000      0.0000    374.8550    833.5140      1.0000      0.5638      0.9500      0.5000      0.9500      0.9000      0.0100           0
MRHM            B                  2000.0000      0.0000    374.8550    833.5140      1.0000      0.3893      0.9500      0.5000      0.9500      0.9000      0.0100           0
MRHM            B                  2000.0000      0.0000    374.8550    833.5140      1.0000      0.6549      0.9500      0.5000      0.9500      0.9000      0.0100           0
MR              C                  2000.0000      0.0000    367.6800    770.4971      1.0000      0.5661      0.9500      0.5000      0.9500      0.5000      0.0100           0
MR              C                  2000.0000      0.0000    367.6800    770.4971      1.0000      0.3789      0.9500      0.5000      0.9500      0.5000      0.0100           0
TU              B                  2000.0000      0.0000    274.2850    716.2769      1.0000      0.1283      0.9500      0.5000      0.9500      0.9000      0.0100           0
KM              C                  2000.0000      0.0000    386.4500    795.2902      1.0000      0.1608      0.9500      0.5000      0.9500      0.5000      0.0100           0
MR              C                  2000.0000      0.0000    367.6800    770.4971      1.0000      0.5170      0.9500      0.5000      0.9500      0.5000      0.0100           0
MR              C                  2000.0000      0.0000    367.6800    770.4971      1.0000      0.5589      0.9500      0.5000      0.9500      0.5000      0.0100           0
TU              B                  2000.0000      0.0000    274.2850    716.2769      1.0000      0.7177      0.9500      0.5000      0.9500      0.9000      0.0100           0
HM              C                  2000.0000      0.0000    273.2450    738.6061      1.0000      0.7468      0.9500      0.5000      0.9500      0.5000      0.0100           0
MR              C                  2000.0000      0.0000    367.6800    770.4971      1.0000      0.6212      0.9500      0.5000      0.9500      0.5000      0.0100           0
MR              C                  2000.0000      0.0000    367.6800    770.4971      1.0000      0.9717      0.9500      0.5000      0.9500      0.5000      0.0100           0
KM              C                  2000.0000      0.0000    386.4500    795.2902      1.0000      0.2488      0.9500      0.5000      0.9500      0.5000      0.0100           0
MR              C                  2000.0000      0.0000    367.6800    770.4971      1.0000      0.5971      0.9500      0.5000      0.9500      0.5000      0.0100           0
MR              C                  2000.0000      0.0000    367.6800    770.4971      1.0000      0.8626      0.9500      0.5000      0.9500      0.5000      0.0100           0
MR              C                  2000.0000      0.0000    367.6800    770.4971      1.0000      0.6127      0.9500      0.5000      0.9500      0.5000      0.0100           0
MR              C                  2000.0000      0.0000    367.6800    770.4971      1.0000      0.6439      0.9500      0.5000      0.9500      0.5000      0.0100           0
MR              C                  2000.0000      0.0000    367.6800    770.4971      1.0000      0.8499      0.9500      0.5000      0.9500      0.5000      0.0100           0
KM              C                  2000.0000      0.0000    386.4500    795.2902      1.0000      0.6929      0.9500      0.5000      0.9500      0.5000      0.0100           0
MR              C                  2000.0000      0.0000    367.6800    770.4971      1.0000      0.4323      0.9500      0.5000      0.9500      0.5000      0.0100           0
MR              C                  2000.0000      0.0000    367.6800    770.4971      1.0000      0.2773      0.9500      0.5000      0.9500      0.5000      0.0100           0
TU              B                  2000.0000      0.0000    274.2850    716.2769      1.0000      0.5943      0.9500      0.5000      0.9500      0.9000      0.0100           0
MR              C                  2000.0000      0.0000    367.6800    770.4971      1.0000      0.5090      0.9500      0.5000      0.9500      0.5000      0.0100           0
MR              C                  2000.0000      0.0000    367.6800    770.4971      1.0000      0.1364      0.9500      0.5000      0.9500      0.5000      0.0100           0
MR              C                  2000.0000      0.0000    367.6800    770.4971      1.0000      0.5224      0.9500      0.5000      0.9500      0.5000      0.0100           0
TU              B                  2000.0000      0.0000    274.2850    716.2769      1.0000      0.5131      0.9500      0.5000      0.9500      0.9000      0.0100           0
TU              B                  2000.0000      0.0000    274.2850    716.2769      1.0000      0.6029      0.9500      0.5000      0.9500      0.9000      0.0100           0
MR              C                  2000.0000      0.0000    367.6800    770.4971      1.0000      0.5869      0.9500      0.5000      0.9500      0.5000      0.0100           0
MR              C                  2000.0000      0.0000    367.6800    770.4971      1.0000      0.7035      0.9500      0.5000      0.9500      0.5000      0.0100           0
MR              C                  2000.0000      0.0000    367.6800    770.4971      1.0000      0.4535      0.9500      0.5000      0.9500      0.5000      0.0100           0
MR              C                  2000.0000      0.0000    367.6800    770.4971      1.0000      0.4942      0.9500      0.5000      0.9500      0.5000      0.0100           0
MR              C                  2000.0000      0.0000    367.6800    770.4971      1.0000      0.2903      0.9500      0.5000      0.9500      0.5000      0.0100           0
MR              C                  2000.0000      0.0000    367.6800    770.4971      1.0000      0.6238      0.9500      0.5000      0.9500      0.5000      0.0100           0
MR              C                  2000.0000      0.0000    367.6800    770.4971      1.0000      0.4293      0.9500      0.5000      0.9500      0.5000      0.0100           0
MR              C                  2000.0000      0.0000    367.6800    770.4971      1.0000      0.7869      0.9500      0.5000      0.9500      0.5000      0.0100           0
MR              C                  2000.0000      0.0000    367.6800    770.4971      1.0000      0.5541      0.9500      0.5000      0.9500      0.5000      0.0100           0
MR              C                  2000.0000      0.0000    367.6800    770.4971      1.0000      0.5434      0.9500      0.5000      0.9500      0.5000      0.0100           0
MR              C                  2000.0000      0.0000    367.6800    770.4971      1.0000      0.6732      0.9500      0.5000      0.9500      0.5000      0.0100           0
MR              C                  2000.0000      0.0000    367.6800    770.4971      1.0000      0.6218      0.9500      0.5000      0.9500      0.5000      0.0100           0
TU              B                  2000.0000      0.0000    274.2850    716.2769      1.0000      0.4345      0.9500      0.5000      0.9500      0.9000      0.0100           0
MR              C                  2000.0000      0.0000    367.6800    770.4971      1.0000      0.7332      0.9500      0.5000      0.9500      0.5000      0.0100           0
MR              C                  2000.0000      0.0000    367.6800    770.4971      1.0000      0.6594      0.9500      0.5000      0.9500      0.5000      0.0100           0
MR              C                  2000.0000      0.0000    367.6800    770.4971      1.0000      0.6161      0.9500      0.5000      0.9500      0.5000      0.0100           0
HM              C                  2000.0000      0.0000    273.2450    738.6061      1.0000      0.6522      0.9500      0.5000      0.9500      0.5000      0.0100           0
HM              C                  2000.0000      0.0000    273.2450    738.6061      1.0000      0.6249      0.9500      0.5000      0.9500      0.5000      0.0100           0
TU              B                  2000.0000      0.0000    274.2850    716.2769      1.0000      0.5693      0.9500      0.5000      0.9500      0.9000      0.0100           0
MR              C                  2000.0000      0.0000    367.6800    770.4971      1.0000      0.6188      0.9500      0.5000      0.9500      0.5000      0.0100           0
VE              B                  2000.0000      0.0000    239.7100    767.6327      1.0000      0.3542      0.9500      0.5000      0.9500      0.9000      0.0100           0
MR              C                  2000.0000      0.0000    367.6800    770.4971      1.0000      0.4235      0.9500      0.5000      0.9500      0.5000      0.0100           0
MR              C                  2000.0000      0.0000    367.6800    770.4971      1.0000      0.6956      0.9500      0.5000      0.9500      0.5000      0.0100           0
MR              C                  2000.0000      0.0000    367.6800    770.4971      1.0000      0.4910      0.9500      0.5000      0.9500      0.5000      0.0100           0
TU              B                  2000.0000      0.0000    274.2850    716.2769      1.0000      0.0698      0.9500      0.5000      0.9500      0.9000      0.0100           0
KM              C                  2000.0000      0.0000    386.4500    795.2902      1.0000      0.4639      0.9500      0.5000      0.9500      0.5000      0.0100           0
MR              C                  2000.0000      0.0000    367.6800    770.4971      1.0000      0.4574      0.9500      0.5000      0.9500      0.5000      0.0100           0
MR              C                  2000.0000      0.0000    367.6800    770.4971      1.0000      0.1915      0.9500      0.5000      0.9500      0.5000      0.0100           0
TU              B                  2000.0000      0.0000    274.2850    716.2769      1.0000      0.0650      0.9500      0.5000      0.9500      0.9000      0.0100           0
MR              C                  2000.0000      0.0000    367.6800    770.4971      1.0000      0.4265      0.9500      0.5000      0.9500      0.5000      0.0100           0
TU              B                  2000.0000      0.0000    274.2850    716.2769      1.0000      0.0650      0.9500      0.5000      0.9500      0.9000      0.0100           0
MR              C                  2000.0000      0.0000    367.6800    770.4971      1.0000      0.0855      0.9500      0.5000      0.9500      0.5000      0.0100           0
VE              B                  2000.0000      0.0000    239.7100    767.6327      1.0000      0.0650      0.9500      0.5000      0.9500      0.9000      0.0100           0
TU              B                  2000.0000      0.0000    274.2850    716.2769      1.0000      0.6196      0.9500      0.5000      0.9500      0.9000      0.0100           0
MR              C                  2000.0000      0.0000    367.6800    770.4971      1.0000      0.3519      0.9500      0.5000      0.9500      0.5000      0.0100           0
MR              C                  2000.0000      0.0000    367.6800    770.4971      1.0000      0.7309      0.9500      0.5000      0.9500      0.5000      0.0100           0
TU              B                  2000.0000      0.0000    274.2850    716.2769      1.0000      0.4112      0.9500      0.5000      0.9500      0.9000      0.0100           0
MR              C                  2000.0000      0.0000    367.6800    770.4971      1.0000      0.0650      0.9500      0.5000      0.9500      0.5000      0.0100           0
KA              C                  2000.0000      0.0000    394.4000    871.2264      1.0000      0.3990      0.9500      0.5000      0.9500      0.5000      0.0100           0
TU              B                  2000.0000      0.0000    274.2850    716.2769      1.0000      0.4097      0.9500      0.5000      0.9500      0.9000      0.0100           0
MR              C                  2000.0000      0.0000    367.6800    770.4971      1.0000      0.6643      0.9500      0.5000      0.9500      0.5000      0.0100           0
KA              C                  2000.0000      0.0000    394.4000    871.2264      1.0000      0.6968      0.9500      0.5000      0.9500      0.5000      0.0100           0
MR              C                  2000.0000      0.0000    367.6800    770.4971      1.0000      0.3247      0.9500      0.5000      0.9500      0.5000      0.0100           0
KA              C                  2000.0000      0.0000    394.4000    871.2264      1.0000      0.5408      0.9500      0.5000      0.9500      0.5000      0.0100           0
KA              C                  2000.0000      0.0000    394.4000    871.2264      1.0000      0.6896      0.9500      0.5000      0.9500      0.5000      0.0100           0
HM              C                  2000.0000      0.0000    273.2450    738.6061      1.0000      0.9010      0.9500      0.5000      0.9500      0.5000      0.0100           0
KA              C                  2000.0000      0.0000    394.4000    871.2264      1.0000      0.6163      0.9500      0.5000      0.9500      0.5000      0.0100           0
MR              C                  2000.0000      0.0000    367.6800    770.4971      1.0000      0.7515      0.9500      0.5000      0.9500      0.5000      0.0100           0
KA              C                  2000.0000      0.0000    394.4000    871.2264      1.0000      0.5988      0.9500      0.5000      0.9500      0.5000      0.0100           0
MR              C                  2000.0000      0.0000    367.6800    770.4971      1.0000      0.5318      0.9500      0.5000      0.9500      0.5000      0.0100           0
KA              C                  2000.0000      0.0000    394.4000    871.2264      1.0000      0.6182      0.9500      0.5000      0.9500      0.5000      0.0100           0
HM              C                  2000.0000      0.0000    273.2450    738.6061      1.0000      0.1042      0.9500      0.5000      0.9500      0.5000      0.0100           0
HM              C                  2000.0000      0.0000    273.2450    738.6061      1.0000      0.1853      0.9500      0.5000      0.9500      0.5000      0.0100           0
MR              C                  2000.0000      0.0000    367.6800    770.4971      1.0000      0.6262      0.9500      0.5000      0.9500      0.5000      0.0100           0
MR              C                  2000.0000      0.0000    367.6800    770.4971      1.0000      0.8591      0.9500      0.5000      0.9500      0.5000      0.0100           0
MR              C                  2000.0000      0.0000    367.6800    770.4971      1.0000      0.5621      0.9500      0.5000      0.9500      0.5000      0.0100           0
KA              C                  2000.0000      0.0000    394.4000    871.2264      1.0000      0.3940      0.9500      0.5000      0.9500      0.5000      0.0100           0
MR              C                  2000.0000      0.0000    367.6800    770.4971      1.0000      0.7049      0.9500      0.5000      0.9500      0.5000      0.0100           0
MR              C                  2000.0000      0.0000    367.6800    770.4971      1.0000      0.6065      0.9500      0.5000      0.9500      0.5000      0.0100           0
MR              C                  2000.0000      0.0000    367.6800    770.4971      1.0000      0.8149      0.9500      0.5000      0.9500      0.5000      0.0100           0
HM              C                  2000.0000      0.0000    273.2450    738.6061      1.0000      0.3426      0.9500      0.5000      0.9500      0.5000      0.0100           0
KM              C                  2000.0000      0.0000    386.4500    795.2902      1.0000      0.7476      0.9500      0.5000      0.9500      0.5000      0.0100           0
MR              C                  2000.0000      0.0000    367.6800    770.4971      1.0000      0.7266      0.9500      0.5000      0.9500      0.5000      0.0100           0
MR              C                  2000.0000      0.0000    367.6800    770.4971      1.0000      0.7964      0.9500      0.5000      0.9500      0.5000      0.0100           0
MR              C                  2000.0000      0.0000    367.6800    770.4971      1.0000      0.5326      0.9500      0.5000      0.9500      0.5000      0.0100           0
MR              C                  2000.0000      0.0000    367.6800    770.4971      1.0000      0.0650      0.9500      0.5000      0.9500      0.5000      0.0100           0
KM              C                  2000.0000      0.0000    386.4500    795.2902      1.0000      0.7336      0.9500      0.5000      0.9500      0.5000      0.0100           0
MR              C                  2000.0000      0.0000    367.6800    770.4971      1.0000      0.8528      0.9500      0.5000      0.9500      0.5000      0.0100           0
KM              C                  2000.0000      0.0000    386.4500    795.2902      1.0000      0.5536      0.9500      0.5000      0.9500      0.5000      0.0100           0
MR              C                  2000.0000      0.0000    367.6800    770.4971      1.0000      0.7489      0.9500      0.5000      0.9500      0.5000      0.0100           0
MR              C                  2000.0000      0.0000    367.6800    770.4971      1.0000      0.7454      0.9500      0.5000      0.9500      0.5000      0.0100           0
MR              C                  2000.0000      0.0000    367.6800    770.4971      1.0000      0.5605      0.9500      0.5000      0.9500      0.5000      0.0100           0
VE              B                  2000.0000      0.0000    239.7100    767.6327      1.0000      0.2582      0.9500      0.5000      0.9500      0.9000      0.0100           0
MR              C                  2000.0000      0.0000    367.6800    770.4971      1.0000      0.4060      0.9500      0.5000      0.9500      0.5000      0.0100           0
KM              C                  2000.0000      0.0000    386.4500    795.2902      1.0000      0.4656      0.9500      0.5000      0.9500      0.5000      0.0100           0
TU              B                  2000.0000      0.0000    274.2850    716.2769      1.0000      0.1526      0.9500      0.5000      0.9500      0.9000      0.0100           0
VE              B                  2000.0000      0.0000    239.7100    767.6327      1.0000      0.2071      0.9500      0.5000      0.9500      0.9000      0.0100           0
MR              C                  2000.0000      0.0000    367.6800    770.4971      1.0000      0.3772      0.9500      0.5000      0.9500      0.5000      0.0100           0
KM              C                  2000.0000      0.0000    386.4500    795.2902      1.0000      0.6445      0.9500      0.5000      0.9500      0.5000      0.0100           0
MR              C                  2000.0000      0.0000    367.6800    770.4971      1.0000      0.6568      0.9500      0.5000      0.9500      0.5000      0.0100           0
MR              C                  2000.0000      0.0000    367.6800    770.4971      1.0000      0.6717      0.9500      0.5000      0.9500      0.5000      0.0100           0
TU              B                  2000.0000      0.0000    274.2850    716.2769      1.0000      0.5476      0.9500      0.5000      0.9500      0.9000      0.0100           0
MR              C                  2000.0000      0.0000    367.6800    770.4971      1.0000      0.4408      0.9500      0.5000      0.9500      0.5000      0.0100           0
KM              C                  2000.0000      0.0000    386.4500    795.2902      1.0000      0.5477      0.9500      0.5000      0.9500      0.5000      0.0100           0
MR              C                  2000.0000      0.0000    367.6800    770.4971      1.0000      0.8082      0.9500      0.5000      0.9500      0.5000      0.0100           0
KM              C                  2000.0000      0.0000    386.4500    795.2902      1.0000      0.5251      0.9500      0.5000      0.9500      0.5000      0.0100           0
MR              C                  2000.0000      0.0000    367.6800    770.4971      1.0000      0.8957      0.9500      0.5000      0.9500      0.5000      0.0100           0
KM              C                  2000.0000      0.0000    386.4500    795.2902      1.0000      0.0650      0.9500      0.5000      0.9500      0.5000      0.0100           0
MR              C                  2000.0000      0.0000    367.6800    770.4971      1.0000      0.6099      0.9500      0.5000      0.9500      0.5000      0.0100           0
MR              C                  2000.0000      0.0000    367.6800    770.4971      1.0000      0.7585      0.9500      0.5000      0.9500      0.5000      0.0100           0
MR              C                  2000.0000      0.0000    367.6800    770.4971      1.0000      0.9313      0.9500      0.5000      0.9500      0.5000      0.0100           0
MR              C                  2000.0000      0.0000    367.6800    770.4971      1.0000      0.7770      0.9500      0.5000      0.9500      0.5000      0.0100           0
MR              C                  2000.0000      0.0000    367.6800    770.4971      1.0000      0.5977      0.9500      0.5000      0.9500      0.5000      0.0100           0
MR              C                  2000.0000      0.0000    367.6800    770.4971      1.0000      0.7610      0.9500      0.5000      0.9500      0.5000      0.0100           0
MR              C                  2000.0000      0.0000    367.6800    770.4971      1.0000      0.6663      0.9500      0.5000      0.9500      0.5000      0.0100           0
MR              C                  2000.0000      0.0000    367.6800    770.4971      1.0000      0.5436      0.9500      0.5000      0.9500      0.5000      0.0100           0
MR              C                  2000.0000      0.0000    367.6800    770.4971      1.0000      0.9978      0.9500      0.5000      0.9500      0.5000      0.0100           0
KM              C                  2000.0000      0.0000    386.4500    795.2902      1.0000      0.7514      0.9500      0.5000      0.9500      0.5000      0.0100           0
SRHK            B                  2000.0000      0.0000    368.1000    827.8243      1.0000      0.7139      0.9500      0.5000      0.9500      0.9000      0.0100           0
MR              C                  2000.0000      0.0000    367.6800    770.4971      1.0000      0.6102      0.9500      0.5000      0.9500      0.5000      0.0100           0
MR              C                  2000.0000      0.0000    367.6800    770.4971      1.0000      0.5541      0.9500      0.5000      0.9500      0.5000      0.0100           0
TU              B                  2000.0000      0.0000    274.2850    716.2769      1.0000      0.4112      0.9500      0.5000      0.9500      0.9000      0.0100           0
KM              C                  2000.0000      0.0000    386.4500    795.2902      1.0000      0.4449      0.9500      0.5000      0.9500      0.5000      0.0100           0
MR              C                  2000.0000      0.0000    367.6800    770.4971      1.0000      0.6561      0.9500      0.5000      0.9500      0.5000      0.0100           0
KM              C                  2000.0000      0.0000    386.4500    795.2902      1.0000      0.1174      0.9500      0.5000      0.9500      0.5000      0.0100           0
KM              C                  2000.0000      0.0000    386.4500    795.2902      1.0000      0.4935      0.9500      0.5000      0.9500      0.5000      0.0100           0
KA              C                  2000.0000      0.0000    394.4000    871.2264      1.0000      0.5929      0.9500      0.5000      0.9500      0.5000      0.0100           0
MR              C                  2000.0000      0.0000    367.6800    770.4971      1.0000      0.5920      0.9500      0.5000      0.9500      0.5000      0.0100           0
HM              C                  2000.0000      0.0000    273.2450    738.6061      1.0000      0.5356      0.9500      0.5000      0.9500      0.5000      0.0100           0
MR              C                  2000.0000      0.0000    367.6800    770.4971      1.0000      0.5117      0.9500      0.5000      0.9500      0.5000      0.0100           0
KM              C                  2000.0000      0.0000    386.4500    795.2902      1.0000      0.6475      0.9500      0.5000      0.9500      0.5000      0.0100           0
MR              C                  2000.0000      0.0000    367.6800    770.4971      1.0000      0.6024      0.9500      0.5000      0.9500      0.5000      0.0100           0
HM              C                  2000.0000      0.0000    273.2450    738.6061      1.0000      0.4110      0.9500      0.5000      0.9500      0.5000      0.0100           0
MR              C                  2000.0000      0.0000    367.6800    770.4971      1.0000      0.6796      0.9500      0.5000      0.9500      0.5000      0.0100           0
KM              C                  2000.0000      0.0000    386.4500    795.2902      1.0000      0.8755      0.9500      0.5000      0.9500      0.5000      0.0100           0
MR              C                  2000.0000      0.0000    367.6800    770.4971      1.0000      0.3657      0.9500      0.5000      0.9500      0.5000      0.0100           0
MR              C                  2000.0000      0.0000    367.6800    770.4971      1.0000      0.6173      0.9500      0.5000      0.9500      0.5000      0.0100           0
SRHK            B                  2000.0000      0.0000    368.1000    827.8243      1.0000      0.5700      0.9500      0.5000      0.9500      0.9000      0.0100           0
KM              C                  2000.0000      0.0000    386.4500    795.2902      1.0000      0.5807      0.9500      0.5000      0.9500      0.5000      0.0100           0
KA              C                  2000.0000      0.0000    394.4000    871.2264      1.0000      0.7737      0.9500      0.5000      0.9500      0.5000      0.0100           0
VE              B                  2000.0000      0.0000    239.7100    767.6327      1.0000      0.4051      0.9500      0.5000      0.9500      0.9000      0.0100           0
SRHK            B                  2000.0000      0.0000    368.1000    827.8243      1.0000      0.6290      0.9500      0.5000      0.9500      0.9000      0.0100           0
MR              C                  2000.0000      0.0000    367.6800    770.4971      1.0000      0.6265      0.9500      0.5000      0.9500      0.5000      0.0100           0
SRHK            B                  2000.0000      0.0000    368.1000    827.8243      1.0000      0.4056      0.9500      0.5000      0.9500      0.9000      0.0100           0
SRHK            B                  2000.0000      0.0000    368.1000    827.8243      1.0000      0.7984      0.9500      0.5000      0.9500      0.9000      0.0100           0
SRHK            B                  2000.0000      0.0000    368.1000    827.8243      1.0000      1.0030      0.9500      0.5000      0.9500      0.9000      0.0100           0
SRHK            B                  2000.0000      0.0000    368.1000    827.8243      1.0000      0.7053      0.9500      0.5000      0.9500      0.9000      0.0100           0
HM              C                  2000.0000      0.0000    273.2450    738.6061      1.0000      0.4996      0.9500      0.5000      0.9500      0.5000      0.0100           0
SRHK            B                  2000.0000      0.0000    368.1000    827.8243      1.0000      0.6445      0.9500      0.5000      0.9500      0.9000      0.0100           0
SRHK            B                  2000.0000      0.0000    368.1000    827.8243      1.0000      0.5907      0.9500      0.5000      0.9500      0.9000      0.0100           0
SRHK            B                  2000.0000      0.0000    368.1000    827.8243      1.0000      0.7790      0.9500      0.5000      0.9500      0.9000      0.0100           0
SRHK            B                  2000.0000      0.0000    368.1000    827.8243      1.0000      0.5578      0.9500      0.5000      0.9500      0.9000      0.0100           0
MR              C                  2000.0000      0.0000    367.6800    770.4971      1.0000      0.3877      0.9500      0.5000      0.9500      0.5000      0.0100           0
SRHK            B                  2000.0000      0.0000    368.1000    827.8243      1.0000      0.6754      0.9500      0.5000      0.9500      0.9000      0.0100           0
MR              C                  2000.0000      0.0000    367.6800    770.4971      1.0000      0.4689      0.9500      0.5000      0.9500      0.5000      0.0100           0
MR              C                  2000.0000      0.0000    367.6800    770.4971      1.0000      0.7795      0.9500      0.5000      0.9500      0.5000      0.0100           0
TU              B                  2000.0000      0.0000    274.2850    716.2769      1.0000      0.9160      0.9500      0.5000      0.9500      0.9000      0.0100           0
MR              C                  2000.0000      0.0000    367.6800    770.4971      1.0000      0.6453      0.9500      0.5000      0.9500      0.5000      0.0100           0
MR              C                  2000.0000      0.0000    367.6800    770.4971      1.0000      0.6498      0.9500      0.5000      0.9500      0.5000      0.0100           0
MR              C                  2000.0000      0.0000    367.6800    770.4971      1.0000      0.5739      0.9500      0.5000      0.9500      0.5000      0.0100           0
MR              C                  2000.0000      0.0000    367.6800    770.4971      1.0000      0.7186      0.9500      0.5000      0.9500      0.5000      0.0100           0
MR              C                  2000.0000      0.0000    367.6800    770.4971      1.0000      0.7437      0.9500      0.5000      0.9500      0.5000      0.0100           0
MR              C                  2000.0000      0.0000    367.6800    770.4971      1.0000      0.7747      0.9500      0.5000      0.9500      0.5000      0.0100           0
KM              C                  2000.0000      0.0000    386.4500    795.2902      1.0000      0.8454      0.9500      0.5000      0.9500      0.5000      0.0100           0
MR              C                  2000.0000      0.0000    367.6800    770.4971      1.0000      0.5660      0.9500      0.5000      0.9500      0.5000      0.0100           0
KM              C                  2000.0000      0.0000    386.4500    795.2902      1.0000      0.6815      0.9500      0.5000      0.9500      0.5000      0.0100           0
VE              B                  2000.0000      0.0000    239.7100    767.6327      1.0000      0.1573      0.9500      0.5000      0.9500      0.9000      0.0100           0
MR              C                  2000.0000      0.0000    367.6800    770.4971      1.0000      0.0681      0.9500      0.5000      0.9500      0.5000      0.0100           0
MR              C                  2000.0000      0.0000    367.6800    770.4971      1.0000      0.9913      0.9500      0.5000      0.9500      0.5000      0.0100           0
VE              B                  2000.0000      0.0000    239.7100    767.6327      1.0000      0.2040      0.9500      0.5000      0.9500      0.9000      0.0100           0
MR              C                  2000.0000      0.0000    367.6800    770.4971      1.0000      0.5548      0.9500      0.5000      0.9500      0.5000      0.0100           0
VE              B                  2000.0000      0.0000    239.7100    767.6327      1.0000      0.3839      0.9500      0.5000      0.9500      0.9000      0.0100           0
MR              C                  2000.0000      0.0000    367.6800    770.4971      1.0000      0.7906      0.9500      0.5000      0.9500      0.5000      0.0100           0
VE              B                  2000.0000      0.0000    239.7100    767.6327      1.0000      0.2251      0.9500      0.5000      0.9500      0.9000      0.0100           0
MR              C                  2000.0000      0.0000    367.6800    770.4971      1.0000      0.5870      0.9500      0.5000      0.9500      0.5000      0.0100           0
MR              C                  2000.0000      0.0000    367.6800    770.4971      1.0000      0.5352      0.9500      0.5000      0.9500      0.5000      0.0100           0
MR              C                  2000.0000      0.0000    367.6800    770.4971      1.0000      0.5359      0.9500      0.5000      0.9500      0.5000      0.0100           0
MR              C                  2000.0000      0.0000    367.6800    770.4971      1.0000      0.7134      0.9500      0.5000      0.9500      0.5000      0.0100           0
VE              B                  2000.0000      0.0000    239.7100    767.6327      1.0000      0.2220      0.9500      0.5000      0.9500      0.9000      0.0100           0
MR              C                  2000.0000      0.0000    367.6800    770.4971      1.0000      0.2274      0.9500      0.5000      0.9500      0.5000      0.0100           0
MR              C                  2000.0000      0.0000    367.6800    770.4971      1.0000      0.1483      0.9500      0.5000      0.9500      0.5000      0.0100           0
MR              C                  2000.0000      0.0000    367.6800    770.4971      1.0000      0.9100      0.9500      0.5000      0.9500      0.5000      0.0100           0
MR              C                  2000.0000      0.0000    367.6800    770.4971      1.0000      0.2686      0.9500      0.5000      0.9500      0.5000      0.0100           0
MR              C                  2000.0000      0.0000    367.6800    770.4971      1.0000      0.6383      0.9500      0.5000      0.9500      0.5000      0.0100           0
MR              C                  2000.0000      0.0000    367.6800    770.4971      1.0000      0.4082      0.9500      0.5000      0.9500      0.5000      0.0100           0
MR              C                  2000.0000      0.0000    367.6800    770.4971      1.0000      0.6536      0.9500      0.5000      0.9500      0.5000      0.0100           0
MR              C                  2000.0000      0.0000    367.6800    770.4971      1.0000      0.6790      0.9500      0.5000      0.9500      0.5000      0.0100           0
MR              C                  2000.0000      0.0000    367.6800    770.4971      1.0000      0.6153      0.9500      0.5000      0.9500      0.5000      0.0100           0
MR              C                  2000.0000      0.0000    367.6800    770.4971      1.0000      0.7700      0.9500      0.5000      0.9500      0.5000      0.0100           0
MR              C                  2000.0000      0.0000    367.6800    770.4971      1.0000      0.5752      0.9500      0.5000      0.9500      0.5000      0.0100           0
MR              C                  2000.0000      0.0000    367.6800    770.4971      1.0000      0.9969      0.9500      0.5000      0.9500      0.5000      0.0100           0
MR              C                  2000.0000      0.0000    367.6800    770.4971      1.0000      0.5842      0.9500      0.5000      0.9500      0.5000      0.0100           0
MR              C                  2000.0000      0.0000    367.6800    770.4971      1.0000      0.3945      0.9500      0.5000      0.9500      0.5000      0.0100           0
MR              C                  2000.0000      0.0000    367.6800    770.4971      1.0000      0.5528      0.9500      0.5000      0.9500      0.5000      0.0100           0
MR              C                  2000.0000      0.0000    367.6800    770.4971      1.0000      0.9927      0.9500      0.5000      0.9500      0.5000      0.0100           0
MR              C                  2000.0000      0.0000    367.6800    770.4971      1.0000      0.3909      0.9500      0.5000      0.9500      0.5000      0.0100           0
KA              C                  2000.0000      0.0000    394.4000    871.2264      1.0000      0.5639      0.9500      0.5000      0.9500      0.5000      0.0100           0
MR              C                  2000.0000      0.0000    367.6800    770.4971      1.0000      0.3640      0.9500      0.5000      0.9500      0.5000      0.0100           0
MR              C                  2000.0000      0.0000    367.6800    770.4971      1.0000      0.6267      0.9500      0.5000      0.9500      0.5000      0.0100           0
MR              C                  2000.0000      0.0000    367.6800    770.4971      1.0000      0.6341      0.9500      0.5000      0.9500      0.5000      0.0100           0
MR              C                  2000.0000      0.0000    367.6800    770.4971      1.0000      0.9430      0.9500      0.5000      0.9500      0.5000      0.0100           0
MR              C                  2000.0000      0.0000    367.6800    770.4971      1.0000      0.6759      0.9500      0.5000      0.9500      0.5000      0.0100           0
MR              C                  2000.0000      0.0000    367.6800    770.4971      1.0000      0.5439      0.9500      0.5000      0.9500      0.5000      0.0100           0
MR              C                  2000.0000      0.0000    367.6800    770.4971      1.0000      0.6592      0.9500      0.5000      0.9500      0.5000      0.0100           0
MR              C                  2000.0000      0.0000    367.6800    770.4971      1.0000      0.7257      0.9500      0.5000      0.9500      0.5000      0.0100           0
KM              C                  2000.0000      0.0000    386.4500    795.2902      1.0000      0.2176      0.9500      0.5000      0.9500      0.5000      0.0100           0
MR              C                  2000.0000      0.0000    367.6800    770.4971      1.0000      0.6709      0.9500      0.5000      0.9500      0.5000      0.0100           0
MR              C                  2000.0000      0.0000    367.6800    770.4971      1.0000      0.8960      0.9500      0.5000      0.9500      0.5000      0.0100           0
SRHK            B                  2000.0000      0.0000    368.1000    827.8243      1.0000      0.6571      0.9500      0.5000      0.9500      0.9000      0.0100           0
KM              C                  2000.0000      0.0000    386.4500    795.2902      1.0000      0.5499      0.9500      0.5000      0.9500      0.5000      0.0100           0
SRHK            B                  2000.0000      0.0000    368.1000    827.8243      1.0000      0.5968      0.9500      0.5000      0.9500      0.9000      0.0100           0
SRHK            B                  2000.0000      0.0000    368.1000    827.8243      1.0000      0.7286      0.9500      0.5000      0.9500      0.9000      0.0100           0
KM              C                  2000.0000      0.0000    386.4500    795.2902      1.0000      0.6946      0.9500      0.5000      0.9500      0.5000      0.0100           0
TU              B                  2000.0000      0.0000    274.2850    716.2769      1.0000      0.6893      0.9500      0.5000      0.9500      0.9000      0.0100           0
MR              C                  2000.0000      0.0000    367.6800    770.4971      1.0000      0.7122      0.9500      0.5000      0.9500      0.5000      0.0100           0
KA              C                  2000.0000      0.0000    394.4000    871.2264      1.0000      0.5827      0.9500      0.5000      0.9500      0.5000      0.0100           0
SRHK            B                  2000.0000      0.0000    368.1000    827.8243      1.0000      0.5059      0.9500      0.5000      0.9500      0.9000      0.0100           0
MR              C                  2000.0000      0.0000    367.6800    770.4971      1.0000      0.6480      0.9500      0.5000      0.9500      0.5000      0.0100           0
KM              C                  2000.0000      0.0000    386.4500    795.2902      1.0000      0.5747      0.9500      0.5000      0.9500      0.5000      0.0100           0
KM              C                  2000.0000      0.0000    386.4500    795.2902      1.0000      0.7336      0.9500      0.5000      0.9500      0.5000      0.0100           0
SRHK            B                  2000.0000      0.0000    368.1000    827.8243      1.0000      0.5789      0.9500      0.5000      0.9500      0.9000      0.0100           0
MR              C                  2000.0000      0.0000    367.6800    770.4971      1.0000      0.2468      0.9500      0.5000      0.9500      0.5000      0.0100           0
MR              C                  2000.0000      0.0000    367.6800    770.4971      1.0000      0.7185      0.9500      0.5000      0.9500      0.5000      0.0100           0
MR              C                  2000.0000      0.0000    367.6800    770.4971      1.0000      0.5456      0.9500      0.5000      0.9500      0.5000      0.0100           0
SRHK            B                  2000.0000      0.0000    368.1000    827.8243      1.0000      0.3939      0.9500      0.5000      0.9500      0.9000      0.0100           0
MR              C                  2000.0000      0.0000    367.6800    770.4971      1.0000      0.6529      0.9500      0.5000      0.9500      0.5000      0.0100           0
MR              C                  2000.0000      0.0000    367.6800    770.4971      1.0000      0.6034      0.9500      0.5000      0.9500      0.5000      0.0100           0
MR              C                  2000.0000      0.0000    367.6800    770.4971      1.0000      0.4388      0.9500      0.5000      0.9500      0.5000      0.0100           0
SRHK            B                  2000.0000      0.0000    368.1000    827.8243      1.0000      0.4228      0.9500      0.5000      0.9500      0.9000      0.0100           0
MR              C                  2000.0000      0.0000    367.6800    770.4971      1.0000      0.5825      0.9500      0.5000      0.9500      0.5000      0.0100           0
MR              C                  2000.0000      0.0000    367.6800    770.4971      1.0000      0.4316      0.9500      0.5000      0.9500      0.5000      0.0100           0
MR              C                  2000.0000      0.0000    367.6800    770.4971      1.0000      0.5814      0.9500      0.5000      0.9500      0.5000      0.0100           0
[...]
TU              B                  2000.0000      0.0000    274.2850    716.2769      1.0000      0.4858      0.9500      0.5000      0.9500      0.9000      0.0100           0
TU              B                  2000.0000      0.0000    274.2850    716.2769      1.0000      0.2664      0.9500      0.5000      0.9500      0.9000      0.0100           0
TU              B                  2000.0000      0.0000    274.2850    716.2769      1.0000      0.4319      0.9500      0.5000      0.9500      0.9000      0.0100           0
TU              B                  2000.0000      0.0000    274.2850    716.2769      1.0000      0.5228      0.9500      0.5000      0.9500      0.9000      0.0100           0
TU              B                  2000.0000      0.0000    274.2850    716.2769      1.0000      0.3976      0.9500      0.5000      0.9500      0.9000      0.0100           0
TU              B                  2000.0000      0.0000    274.2850    716.2769      1.0000      0.2075      0.9500      0.5000      0.9500      0.9000      0.0100           0
TU              B                  2000.0000      0.0000    274.2850    716.2769      1.0000      0.1574      0.9500      0.5000      0.9500      0.9000      0.0100           0
MR              C                  2000.0000      0.0000    367.6800    770.4971      1.0000      0.5842      0.9500      0.5000      0.9500      0.5000      0.0100           0
TU              B                  2000.0000      0.0000    274.2850    716.2769      1.0000      0.2030      0.9500      0.5000      0.9500      0.9000      0.0100           0
MR              C                  2000.0000      0.0000    367.6800    770.4971      1.0000      0.4986      0.9500      0.5000      0.9500      0.5000      0.0100           0
MR              C                  2000.0000      0.0000    367.6800    770.4971      1.0000      0.3386      0.9500      0.5000      0.9500      0.5000      0.0100           0
MR              C                  2000.0000      0.0000    367.6800    770.4971      1.0000      0.4006      0.9500      0.5000      0.9500      0.5000      0.0100           0
MR              C                  2000.0000      0.0000    367.6800    770.4971      1.0000      0.5223      0.9500      0.5000      0.9500      0.5000      0.0100           0
MR              C                  2000.0000      0.0000    367.6800    770.4971      1.0000      0.4382      0.9500      0.5000      0.9500      0.5000      0.0100           0
TU              B                  2000.0000      0.0000    274.2850    716.2769      1.0000      0.1215      0.9500      0.5000      0.9500      0.9000      0.0100           0
MR              C                  2000.0000      0.0000    367.6800    770.4971      1.0000      0.7363      0.9500      0.5000      0.9500      0.5000      0.0100           0
TU              B                  2000.0000      0.0000    274.2850    716.2769      1.0000      0.5894      0.9500      0.5000      0.9500      0.9000      0.0100           0
TU              B                  2000.0000      0.0000    274.2850    716.2769      1.0000      0.4842      0.9500      0.5000      0.9500      0.9000      0.0100           0
TU              B                  2000.0000      0.0000    274.2850    716.2769      1.0000      0.6102      0.9500      0.5000      0.9500      0.9000      0.0100           0
MR              C                  2000.0000      0.0000    367.6800    770.4971      1.0000      0.7466      0.9500      0.5000      0.9500      0.5000      0.0100           0
TU              B                  2000.0000      0.0000    274.2850    716.2769      1.0000      0.5840      0.9500      0.5000      0.9500      0.9000      0.0100           0
MR              C                  2000.0000      0.0000    367.6800    770.4971      1.0000      0.6275      0.9500      0.5000      0.9500      0.5000      0.0100           0
KM              C                  2000.0000      0.0000    386.4500    795.2902      1.0000      0.5842      0.9500      0.5000      0.9500      0.5000      0.0100           0
TU              B                  2000.0000      0.0000    274.2850    716.2769      1.0000      0.7539      0.9500      0.5000      0.9500      0.9000      0.0100           0
MR              C                  2000.0000      0.0000    367.6800    770.4971      1.0000      0.6681      0.9500      0.5000      0.9500      0.5000      0.0100           0
MR              C                  2000.0000      0.0000    367.6800    770.4971      1.0000      0.4534      0.9500      0.5000      0.9500      0.5000      0.0100           0
MR              C                  2000.0000      0.0000    367.6800    770.4971      1.0000      0.5376      0.9500      0.5000      0.9500      0.5000      0.0100           0
MR              C                  2000.0000      0.0000    367.6800    770.4971      1.0000      0.5458      0.9500      0.5000      0.9500      0.5000      0.0100           0
MR              C                  2000.0000      0.0000    367.6800    770.4971      1.0000      0.4273      0.9500      0.5000      0.9500      0.5000      0.0100           0
MR              C                  2000.0000      0.0000    367.6800    770.4971      1.0000      0.6226      0.9500      0.5000      0.9500      0.5000      0.0100           0
KM              C                  2000.0000      0.0000    386.4500    795.2902      1.0000      0.5625      0.9500      0.5000      0.9500      0.5000      0.0100           0
MR              C                  2000.0000      0.0000    367.6800    770.4971      1.0000      0.5576      0.9500      0.5000      0.9500      0.5000      0.0100           0
MR              C                  2000.0000      0.0000    367.6800    770.4971      1.0000      0.6608      0.9500      0.5000      0.9500      0.5000      0.0100           0
MR              C                  2000.0000      0.0000    367.6800    770.4971      1.0000      0.8029      0.9500      0.5000      0.9500      0.5000      0.0100           0
MR              C                  2000.0000      0.0000    367.6800    770.4971      1.0000      0.5662      0.9500      0.5000      0.9500      0.5000      0.0100           0
MR              C                  2000.0000      0.0000    367.6800    770.4971      1.0000      0.6807      0.9500      0.5000      0.9500      0.5000      0.0100           0
SRHK            B                  2000.0000      0.0000    368.1000    827.8243      1.0000      0.5858      0.9500      0.5000      0.9500      0.9000      0.0100           0
MR              C                  2000.0000      0.0000    367.6800    770.4971      1.0000      0.5783      0.9500      0.5000      0.9500      0.5000      0.0100           0
SRHK            B                  2000.0000      0.0000    368.1000    827.8243      1.0000      0.0650      0.9500      0.5000      0.9500      0.9000      0.0100           0
MR              C                  2000.0000      0.0000    367.6800    770.4971      1.0000      0.4041      0.9500      0.5000      0.9500      0.5000      0.0100           0
MR              C                  2000.0000      0.0000    367.6800    770.4971      1.0000      0.7528      0.9500      0.5000      0.9500      0.5000      0.0100           0
KA              C                  2000.0000      0.0000    394.4000    871.2264      1.0000      0.9721      0.9500      0.5000      0.9500      0.5000      0.0100           0
KA              C                  2000.0000      0.0000    394.4000    871.2264      1.0000      0.9699      0.9500      0.5000      0.9500      0.5000      0.0100           0
MR              C                  2000.0000      0.0000    367.6800    770.4971      1.0000      0.2603      0.9500      0.5000      0.9500      0.5000      0.0100           0
MR              C                  2000.0000      0.0000    367.6800    770.4971      1.0000      0.3818      0.9500      0.5000      0.9500      0.5000      0.0100           0
MR              C                  2000.0000      0.0000    367.6800    770.4971      1.0000      0.3909      0.9500      0.5000      0.9500      0.5000      0.0100           0
MR              C                  2000.0000      0.0000    367.6800    770.4971      1.0000      0.5767      0.9500      0.5000      0.9500      0.5000      0.0100           0
MR              C                  2000.0000      0.0000    367.6800    770.4971      1.0000      0.6840      0.9500      0.5000      0.9500      0.5000      0.0100           0
MR              C                  2000.0000      0.0000    367.6800    770.4971      1.0000      0.4910      0.9500      0.5000      0.9500      0.5000      0.0100           0
MR              C                  2000.0000      0.0000    367.6800    770.4971      1.0000      0.2689      0.9500      0.5000      0.9500      0.5000      0.0100           0
MR              C                  2000.0000      0.0000    367.6800    770.4971      1.0000      0.4519      0.9500      0.5000      0.9500      0.5000      0.0100           0
VE              B                  2000.0000      0.0000    239.7100    767.6327      1.0000      0.0719      0.9500      0.5000      0.9500      0.9000      0.0100           0
MR              C                  2000.0000      0.0000    367.6800    770.4971      1.0000      0.0650      0.9500      0.5000      0.9500      0.5000      0.0100           0
MR              C                  2000.0000      0.0000    367.6800    770.4971      1.0000      0.2757      0.9500      0.5000      0.9500      0.5000      0.0100           0
MR              C                  2000.0000      0.0000    367.6800    770.4971      1.0000      0.6482      0.9500      0.5000      0.9500      0.5000      0.0100           0
MR              C                  2000.0000      0.0000    367.6800    770.4971      1.0000      0.5643      0.9500      0.5000      0.9500      0.5000      0.0100           0
MR              C                  2000.0000      0.0000    367.6800    770.4971      1.0000      0.5090      0.9500      0.5000      0.9500      0.5000      0.0100           0
MR              C                  2000.0000      0.0000    367.6800    770.4971      1.0000      0.6161      0.9500      0.5000      0.9500      0.5000      0.0100           0
MR              C                  2000.0000      0.0000    367.6800    770.4971      1.0000      0.4027      0.9500      0.5000      0.9500      0.5000      0.0100           0
MR              C                  2000.0000      0.0000    367.6800    770.4971      1.0000      0.7216      0.9500      0.5000      0.9500      0.5000      0.0100           0
MR              C                  2000.0000      0.0000    367.6800    770.4971      1.0000      0.6060      0.9500      0.5000      0.9500      0.5000      0.0100           0
MR              C                  2000.0000      0.0000    367.6800    770.4971      1.0000      0.5972      0.9500      0.5000      0.9500      0.5000      0.0100           0
MR              C                  2000.0000      0.0000    367.6800    770.4971      1.0000      0.9086      0.9500      0.5000      0.9500      0.5000      0.0100           0
MR              C                  2000.0000      0.0000    367.6800    770.4971      1.0000      0.8196      0.9500      0.5000      0.9500      0.5000      0.0100           0
MR              C                  2000.0000      0.0000    367.6800    770.4971      1.0000      0.5867      0.9500      0.5000      0.9500      0.5000      0.0100           0
MR              C                  2000.0000      0.0000    367.6800    770.4971      1.0000      0.7255      0.9500      0.5000      0.9500      0.5000      0.0100           0
MR              C                  2000.0000      0.0000    367.6800    770.4971      1.0000      0.9102      0.9500      0.5000      0.9500      0.5000      0.0100           0
MR              C                  2000.0000      0.0000    367.6800    770.4971      1.0000      0.6783      0.9500      0.5000      0.9500      0.5000      0.0100           0
KA              C                  2000.0000      0.0000    394.4000    871.2264      1.0000      1.0654      0.9500      0.5000      0.9500      0.5000      0.0100           0
KA              C                  2000.0000      0.0000    394.4000    871.2264      1.0000      0.7723      0.9500      0.5000      0.9500      0.5000      0.0100           0
MR              C                  2000.0000      0.0000    367.6800    770.4971      1.0000      0.6606      0.9500      0.5000      0.9500      0.5000      0.0100           0
TU              B                  2000.0000      0.0000    274.2850    716.2769      1.0000      0.4384      0.9500      0.5000      0.9500      0.9000      0.0100           0
MR              C                  2000.0000      0.0000    367.6800    770.4971      1.0000      0.5462      0.9500      0.5000      0.9500      0.5000      0.0100           0
MR              C                  2000.0000      0.0000    367.6800    770.4971      1.0000      0.5807      0.9500      0.5000      0.9500      0.5000      0.0100           0
MR              C                  2000.0000      0.0000    367.6800    770.4971      1.0000      0.8264      0.9500      0.5000      0.9500      0.5000      0.0100           0
MR              C                  2000.0000      0.0000    367.6800    770.4971      1.0000      0.8290      0.9500      0.5000      0.9500      0.5000      0.0100           0
KA              C                  2000.0000      0.0000    394.4000    871.2264      1.0000      0.9457      0.9500      0.5000      0.9500      0.5000      0.0100           0
KA              C                  2000.0000      0.0000    394.4000    871.2264      1.0000      0.9001      0.9500      0.5000      0.9500      0.5000      0.0100           0
KA              C                  2000.0000      0.0000    394.4000    871.2264      1.0000      1.1357      0.9500      0.5000      0.9500      0.5000      0.0100           0
KA              C                  2000.0000      0.0000    394.4000    871.2264      1.0000      2.2707      0.9500      0.5000      0.9500      0.5000      0.0100           0
KA              C                  2000.0000      0.0000    394.4000    871.2264      1.0000      0.9284      0.9500      0.5000      0.9500      0.5000      0.0100           0
MR              C                  2000.0000      0.0000    367.6800    770.4971      1.0000      0.8882      0.9500      0.5000      0.9500      0.5000      0.0100           0
MR              C                  2000.0000      0.0000    367.6800    770.4971      1.0000      0.6423      0.9500      0.5000      0.9500      0.5000      0.0100           0
MR              C                  2000.0000      0.0000    367.6800    770.4971      1.0000      0.6079      0.9500      0.5000      0.9500      0.5000      0.0100           0
KA              C                  2000.0000      0.0000    394.4000    871.2264      1.0000      0.6448      0.9500      0.5000      0.9500      0.5000      0.0100           0
MR              C                  2000.0000      0.0000    367.6800    770.4971      1.0000      0.5756      0.9500      0.5000      0.9500      0.5000      0.0100           0
MR              C                  2000.0000      0.0000    367.6800    770.4971      1.0000      0.4507      0.9500      0.5000      0.9500      0.5000      0.0100           0
MR              C                  2000.0000      0.0000    367.6800    770.4971      1.0000      0.5129      0.9500      0.5000      0.9500      0.5000      0.0100           0
MR              C                  2000.0000      0.0000    367.6800    770.4971      1.0000      0.5387      0.9500      0.5000      0.9500      0.5000      0.0100           0
MR              C                  2000.0000      0.0000    367.6800    770.4971      1.0000      0.7271      0.9500      0.5000      0.9500      0.5000      0.0100           0
MR              C                  2000.0000      0.0000    367.6800    770.4971      1.0000      0.6344      0.9500      0.5000      0.9500      0.5000      0.0100           0
MR              C                  2000.0000      0.0000    367.6800    770.4971      1.0000      0.9595      0.9500      0.5000      0.9500      0.5000      0.0100           0
KA              C                  2000.0000      0.0000    394.4000    871.2264      1.0000      0.7986      0.9500      0.5000      0.9500      0.5000      0.0100           0
KA              C                  2000.0000      0.0000    394.4000    871.2264      1.0000      1.4475      0.9500      0.5000      0.9500      0.5000      0.0100           0
MR              C                  2000.0000      0.0000    367.6800    770.4971      1.0000      0.9957      0.9500      0.5000      0.9500      0.5000      0.0100           0
MR              C                  2000.0000      0.0000    367.6800    770.4971      1.0000      0.6612      0.9500      0.5000      0.9500      0.5000      0.0100           0
MR              C                  2000.0000      0.0000    367.6800    770.4971      1.0000      0.5738      0.9500      0.5000      0.9500      0.5000      0.0100           0
KA              C                  2000.0000      0.0000    394.4000    871.2264      1.0000      0.8882      0.9500      0.5000      0.9500      0.5000      0.0100           0
KA              C                  2000.0000      0.0000    394.4000    871.2264      1.0000      0.2258      0.9500      0.5000      0.9500      0.5000      0.0100           0
KA              C                  2000.0000      0.0000    394.4000    871.2264      1.0000      0.0651      0.9500      0.5000      0.9500      0.5000      0.0100           0
MR              C                  2000.0000      0.0000    367.6800    770.4971      1.0000      0.7412      0.9500      0.5000      0.9500      0.5000      0.0100           0
KA              C                  2000.0000      0.0000    394.4000    871.2264      1.0000      0.8028      0.9500      0.5000      0.9500      0.5000      0.0100           0
KA              C                  2000.0000      0.0000    394.4000    871.2264      1.0000      1.4539      0.9500      0.5000      0.9500      0.5000      0.0100           0
KA              C                  2000.0000      0.0000    394.4000    871.2264      1.0000      0.6020      0.9500      0.5000      0.9500      0.5000      0.0100           0
SRHK            B                  2000.0000      0.0000    368.1000    827.8243      1.0000      0.8807      0.9500      0.5000      0.9500      0.9000      0.0100           0
MR              C                  2000.0000      0.0000    367.6800    770.4971      1.0000      0.5496      0.9500      0.5000      0.9500      0.5000      0.0100           0
SRHK            B                  2000.0000      0.0000    368.1000    827.8243      1.0000      0.9777      0.9500      0.5000      0.9500      0.9000      0.0100           0
SRHK            B                  2000.0000      0.0000    368.1000    827.8243      1.0000      0.9549      0.9500      0.5000      0.9500      0.9000      0.0100           0
SRHK            B                  2000.0000      0.0000    368.1000    827.8243      1.0000      0.0706      0.9500      0.5000      0.9500      0.9000      0.0100           0
MR              C                  2000.0000      0.0000    367.6800    770.4971      1.0000      1.7036      0.9500      0.5000      0.9500      0.5000      0.0100           0
MR              C                  2000.0000      0.0000    367.6800    770.4971      1.0000      0.9070      0.9500      0.5000      0.9500      0.5000      0.0100           0
MR              C                  2000.0000      0.0000    367.6800    770.4971      1.0000      0.1842      0.9500      0.5000      0.9500      0.5000      0.0100           0
