 Oulanka_absent_lake_clima SWAT+ Jul 2 2024        MODULAR Rev 2024.61.0.1                                
                                        zmx       usle_k       sumfc       sumul      usle_p     usle_ls        esco        epco     cn3_swf       perco     latq_co   tiledrain 
 sname           hydgrp                 (mm)                    (mm)        (mm)                                                                                     0=notile;1=tile;
Od23-a-3220     D                  1000.0000      0.0000    120.0000    875.4332      1.0000      0.6998      0.9500      0.5000      0.9500      0.0500      0.0100           0
Od23-a-3220     D                  1000.0000      0.0000    120.0000    875.4332      1.0000      0.5656      0.9500      0.5000      0.9500      0.0500      0.0100           0
Od23-a-3220     D                  1000.0000      0.0000    120.0000    875.4332      1.0000      0.5588      0.9500      0.5000      0.9500      0.0500      0.0100           0
Po32-1-2a-6610  B                  1000.0000      0.0000     90.0000    602.8438      1.0000      0.5617      0.9500      0.5000      0.9500      0.9000      0.0100           0
Od23-a-3220     D                  1000.0000      0.0000    120.0000    875.4332      1.0000      0.7212      0.9500      0.5000      0.9500      0.0500      0.0100           0
Po32-1-2a-6610  B                  1000.0000      0.0000     90.0000    602.8438      1.0000      0.1756      0.9500      0.5000      0.9500      0.9000      0.0100           0
Po32-1-2a-6610  B                  1000.0000      0.0000     90.0000    602.8438      1.0000      0.6543      0.9500      0.5000      0.9500      0.9000      0.0100           0
Po32-1-2a-6610  B                  1000.0000      0.0000     90.0000    602.8438      1.0000      0.1719      0.9500      0.5000      0.9500      0.9000      0.0100           0
Po32-1-2a-6610  B                  1000.0000      0.0000     90.0000    602.8438      1.0000      0.6352      0.9500      0.5000      0.9500      0.9000      0.0100           0
Po32-1-2a-6610  B                  1000.0000      0.0000     90.0000    602.8438      1.0000      0.1811      0.9500      0.5000      0.9500      0.9000      0.0100           0
I-Po-1-2b-3117  B                  1000.0000      0.0000     70.0000    454.0212      1.0000      0.6426      0.9500      0.5000      0.9500      0.9000      0.0100           0
Po32-1-2a-6610  B                  1000.0000      0.0000     90.0000    602.8438      1.0000      0.2396      0.9500      0.5000      0.9500      0.9000      0.0100           0
Po32-1-2a-6610  B                  1000.0000      0.0000     90.0000    602.8438      1.0000      0.6502      0.9500      0.5000      0.9500      0.9000      0.0100           0
Po32-1-2a-6610  B                  1000.0000      0.0000     90.0000    602.8438      1.0000      0.5914      0.9500      0.5000      0.9500      0.9000      0.0100           0
Po32-1-2a-6610  B                  1000.0000      0.0000     90.0000    602.8438      1.0000      0.1479      0.9500      0.5000      0.9500      0.9000      0.0100           0
Po32-1-2a-6610  B                  1000.0000      0.0000     90.0000    602.8438      1.0000      0.4564      0.9500      0.5000      0.9500      0.9000      0.0100           0
Po32-1-2a-6610  B                  1000.0000      0.0000     90.0000    602.8438      1.0000      0.6360      0.9500      0.5000      0.9500      0.9000      0.0100           0
Po32-1-2a-6610  B                  1000.0000      0.0000     90.0000    602.8438      1.0000      0.5651      0.9500      0.5000      0.9500      0.9000      0.0100           0
Po32-1-2a-6610  B                  1000.0000      0.0000     90.0000    602.8438      1.0000      0.4257      0.9500      0.5000      0.9500      0.9000      0.0100           0
Po32-1-2a-6610  B                  1000.0000      0.0000     90.0000    602.8438      1.0000      0.7028      0.9500      0.5000      0.9500      0.9000      0.0100           0
Po32-1-2a-6610  B                  1000.0000      0.0000     90.0000    602.8438      1.0000      0.7429      0.9500      0.5000      0.9500      0.9000      0.0100           0
Po32-1-2a-6610  B                  1000.0000      0.0000     90.0000    602.8438      1.0000      0.3528      0.9500      0.5000      0.9500      0.9000      0.0100           0
Po32-1-2a-6610  B                  1000.0000      0.0000     90.0000    602.8438      1.0000      0.1076      0.9500      0.5000      0.9500      0.9000      0.0100           0
Po32-1-2a-6610  B                  1000.0000      0.0000     90.0000    602.8438      1.0000      0.5122      0.9500      0.5000      0.9500      0.9000      0.0100           0
Po32-1-2a-6610  B                  1000.0000      0.0000     90.0000    602.8438      1.0000      0.1308      0.9500      0.5000      0.9500      0.9000      0.0100           0
Po32-1-2a-6610  B                  1000.0000      0.0000     90.0000    602.8438      1.0000      0.1536      0.9500      0.5000      0.9500      0.9000      0.0100           0
Po32-1-2a-6610  B                  1000.0000      0.0000     90.0000    602.8438      1.0000      0.5693      0.9500      0.5000      0.9500      0.9000      0.0100           0
Po32-1-2a-6610  B                  1000.0000      0.0000     90.0000    602.8438      1.0000      0.6079      0.9500      0.5000      0.9500      0.9000      0.0100           0
Po32-1-2a-6610  B                  1000.0000      0.0000     90.0000    602.8438      1.0000      0.7020      0.9500      0.5000      0.9500      0.9000      0.0100           0
Po32-1-2a-6610  B                  1000.0000      0.0000     90.0000    602.8438      1.0000      0.6793      0.9500      0.5000      0.9500      0.9000      0.0100           0
Po32-1-2a-6610  B                  1000.0000      0.0000     90.0000    602.8438      1.0000      0.4097      0.9500      0.5000      0.9500      0.9000      0.0100           0
Po32-1-2a-6610  B                  1000.0000      0.0000     90.0000    602.8438      1.0000      0.5068      0.9500      0.5000      0.9500      0.9000      0.0100           0
Po32-1-2a-6610  B                  1000.0000      0.0000     90.0000    602.8438      1.0000      0.5715      0.9500      0.5000      0.9500      0.9000      0.0100           0
Po32-1-2a-6610  B                  1000.0000      0.0000     90.0000    602.8438      1.0000      0.4471      0.9500      0.5000      0.9500      0.9000      0.0100           0
Po32-1-2a-6610  B                  1000.0000      0.0000     90.0000    602.8438      1.0000      0.5594      0.9500      0.5000      0.9500      0.9000      0.0100           0
Po32-1-2a-6610  B                  1000.0000      0.0000     90.0000    602.8438      1.0000      0.3227      0.9500      0.5000      0.9500      0.9000      0.0100           0
Po32-1-2a-6610  B                  1000.0000      0.0000     90.0000    602.8438      1.0000      0.4126      0.9500      0.5000      0.9500      0.9000      0.0100           0
Po32-1-2a-6610  B                  1000.0000      0.0000     90.0000    602.8438      1.0000      0.5977      0.9500      0.5000      0.9500      0.9000      0.0100           0
Po32-1-2a-6610  B                  1000.0000      0.0000     90.0000    602.8438      1.0000      0.4442      0.9500      0.5000      0.9500      0.9000      0.0100           0
Po32-1-2a-6610  B                  1000.0000      0.0000     90.0000    602.8438      1.0000      0.3722      0.9500      0.5000      0.9500      0.9000      0.0100           0
Po32-1-2a-6610  B                  1000.0000      0.0000     90.0000    602.8438      1.0000      0.7209      0.9500      0.5000      0.9500      0.9000      0.0100           0
Po32-1-2a-6610  B                  1000.0000      0.0000     90.0000    602.8438      1.0000      0.3278      0.9500      0.5000      0.9500      0.9000      0.0100           0
Po32-1-2a-6610  B                  1000.0000      0.0000     90.0000    602.8438      1.0000      0.2691      0.9500      0.5000      0.9500      0.9000      0.0100           0
Po32-1-2a-6610  B                  1000.0000      0.0000     90.0000    602.8438      1.0000      0.3976      0.9500      0.5000      0.9500      0.9000      0.0100           0
Po32-1-2a-6610  B                  1000.0000      0.0000     90.0000    602.8438      1.0000      0.2867      0.9500      0.5000      0.9500      0.9000      0.0100           0
Po32-1-2a-6610  B                  1000.0000      0.0000     90.0000    602.8438      1.0000      0.6133      0.9500      0.5000      0.9500      0.9000      0.0100           0
Po32-1-2a-6610  B                  1000.0000      0.0000     90.0000    602.8438      1.0000      0.2863      0.9500      0.5000      0.9500      0.9000      0.0100           0
Po32-1-2a-6610  B                  1000.0000      0.0000     90.0000    602.8438      1.0000      0.8721      0.9500      0.5000      0.9500      0.9000      0.0100           0
Po32-1-2a-6610  B                  1000.0000      0.0000     90.0000    602.8438      1.0000      0.7253      0.9500      0.5000      0.9500      0.9000      0.0100           0
Po32-1-2a-6610  B                  1000.0000      0.0000     90.0000    602.8438      1.0000      0.5691      0.9500      0.5000      0.9500      0.9000      0.0100           0
Po32-1-2a-6610  B                  1000.0000      0.0000     90.0000    602.8438      1.0000      0.7184      0.9500      0.5000      0.9500      0.9000      0.0100           0
Po32-1-2a-6610  B                  1000.0000      0.0000     90.0000    602.8438      1.0000      0.8921      0.9500      0.5000      0.9500      0.9000      0.0100           0
Po32-1-2a-6610  B                  1000.0000      0.0000     90.0000    602.8438      1.0000      0.7030      0.9500      0.5000      0.9500      0.9000      0.0100           0
I-Po-1-2b-3117  B                  1000.0000      0.0000     70.0000    454.0212      1.0000      0.7507      0.9500      0.5000      0.9500      0.9000      0.0100           0
I-Po-1-2b-3117  B                  1000.0000      0.0000     70.0000    454.0212      1.0000      0.7392      0.9500      0.5000      0.9500      0.9000      0.0100           0
Po32-1-2a-6610  B                  1000.0000      0.0000     90.0000    602.8438      1.0000      0.5424      0.9500      0.5000      0.9500      0.9000      0.0100           0
Po32-1-2a-6610  B                  1000.0000      0.0000     90.0000    602.8438      1.0000      0.5479      0.9500      0.5000      0.9500      0.9000      0.0100           0
I-Po-1-2b-3117  B                  1000.0000      0.0000     70.0000    454.0212      1.0000      0.5590      0.9500      0.5000      0.9500      0.9000      0.0100           0
Po32-1-2a-6610  B                  1000.0000      0.0000     90.0000    602.8438      1.0000      0.4929      0.9500      0.5000      0.9500      0.9000      0.0100           0
Po32-1-2a-6610  B                  1000.0000      0.0000     90.0000    602.8438      1.0000      0.5506      0.9500      0.5000      0.9500      0.9000      0.0100           0
Po32-1-2a-6610  B                  1000.0000      0.0000     90.0000    602.8438      1.0000      0.4286      0.9500      0.5000      0.9500      0.9000      0.0100           0
I-Po-1-2b-3117  B                  1000.0000      0.0000     70.0000    454.0212      1.0000      0.5366      0.9500      0.5000      0.9500      0.9000      0.0100           0
Po32-1-2a-6610  B                  1000.0000      0.0000     90.0000    602.8438      1.0000      0.3222      0.9500      0.5000      0.9500      0.9000      0.0100           0
Po32-1-2a-6610  B                  1000.0000      0.0000     90.0000    602.8438      1.0000      0.4180      0.9500      0.5000      0.9500      0.9000      0.0100           0
Po32-1-2a-6610  B                  1000.0000      0.0000     90.0000    602.8438      1.0000      0.2906      0.9500      0.5000      0.9500      0.9000      0.0100           0
Po32-1-2a-6610  B                  1000.0000      0.0000     90.0000    602.8438      1.0000      0.3144      0.9500      0.5000      0.9500      0.9000      0.0100           0
Po32-1-2a-6610  B                  1000.0000      0.0000     90.0000    602.8438      1.0000      0.4520      0.9500      0.5000      0.9500      0.9000      0.0100           0
Po32-1-2a-6610  B                  1000.0000      0.0000     90.0000    602.8438      1.0000      0.5782      0.9500      0.5000      0.9500      0.9000      0.0100           0
Po32-1-2a-6610  B                  1000.0000      0.0000     90.0000    602.8438      1.0000      0.5339      0.9500      0.5000      0.9500      0.9000      0.0100           0
Po32-1-2a-6610  B                  1000.0000      0.0000     90.0000    602.8438      1.0000      0.4369      0.9500      0.5000      0.9500      0.9000      0.0100           0
Po32-1-2a-6610  B                  1000.0000      0.0000     90.0000    602.8438      1.0000      0.7047      0.9500      0.5000      0.9500      0.9000      0.0100           0
Po32-1-2a-6610  B                  1000.0000      0.0000     90.0000    602.8438      1.0000      0.6150      0.9500      0.5000      0.9500      0.9000      0.0100           0
Po32-1-2a-6610  B                  1000.0000      0.0000     90.0000    602.8438      1.0000      0.3233      0.9500      0.5000      0.9500      0.9000      0.0100           0
Po32-1-2a-6610  B                  1000.0000      0.0000     90.0000    602.8438      1.0000      0.6015      0.9500      0.5000      0.9500      0.9000      0.0100           0
Od23-a-3220     D                  1000.0000      0.0000    120.0000    875.4332      1.0000      0.4461      0.9500      0.5000      0.9500      0.0500      0.0100           0
Od23-a-3220     D                  1000.0000      0.0000    120.0000    875.4332      1.0000      0.3206      0.9500      0.5000      0.9500      0.0500      0.0100           0
Od23-a-3220     D                  1000.0000      0.0000    120.0000    875.4332      1.0000      0.7935      0.9500      0.5000      0.9500      0.0500      0.0100           0
Po32-1-2a-6610  B                  1000.0000      0.0000     90.0000    602.8438      1.0000      0.4421      0.9500      0.5000      0.9500      0.9000      0.0100           0
Po32-1-2a-6610  B                  1000.0000      0.0000     90.0000    602.8438      1.0000      0.6484      0.9500      0.5000      0.9500      0.9000      0.0100           0
Po32-1-2a-6610  B                  1000.0000      0.0000     90.0000    602.8438      1.0000      0.3872      0.9500      0.5000      0.9500      0.9000      0.0100           0
Od23-a-3220     D                  1000.0000      0.0000    120.0000    875.4332      1.0000      0.2398      0.9500      0.5000      0.9500      0.0500      0.0100           0
Od23-a-3220     D                  1000.0000      0.0000    120.0000    875.4332      1.0000      0.5027      0.9500      0.5000      0.9500      0.0500      0.0100           0
Od23-a-3220     D                  1000.0000      0.0000    120.0000    875.4332      1.0000      0.7192      0.9500      0.5000      0.9500      0.0500      0.0100           0
Od23-a-3220     D                  1000.0000      0.0000    120.0000    875.4332      1.0000      0.4614      0.9500      0.5000      0.9500      0.0500      0.0100           0
Od23-a-3220     D                  1000.0000      0.0000    120.0000    875.4332      1.0000      0.5382      0.9500      0.5000      0.9500      0.0500      0.0100           0
Od23-a-3220     D                  1000.0000      0.0000    120.0000    875.4332      1.0000      0.2423      0.9500      0.5000      0.9500      0.0500      0.0100           0
Od23-a-3220     D                  1000.0000      0.0000    120.0000    875.4332      1.0000      0.2724      0.9500      0.5000      0.9500      0.0500      0.0100           0
Od23-a-3220     D                  1000.0000      0.0000    120.0000    875.4332      1.0000      0.4424      0.9500      0.5000      0.9500      0.0500      0.0100           0
Od23-a-3220     D                  1000.0000      0.0000    120.0000    875.4332      1.0000      0.6883      0.9500      0.5000      0.9500      0.0500      0.0100           0
Od23-a-3220     D                  1000.0000      0.0000    120.0000    875.4332      1.0000      0.3947      0.9500      0.5000      0.9500      0.0500      0.0100           0
Od23-a-3220     D                  1000.0000      0.0000    120.0000    875.4332      1.0000      0.5717      0.9500      0.5000      0.9500      0.0500      0.0100           0
Od23-a-3220     D                  1000.0000      0.0000    120.0000    875.4332      1.0000      0.4296      0.9500      0.5000      0.9500      0.0500      0.0100           0
Od23-a-3220     D                  1000.0000      0.0000    120.0000    875.4332      1.0000      0.5900      0.9500      0.5000      0.9500      0.0500      0.0100           0
Od23-a-3220     D                  1000.0000      0.0000    120.0000    875.4332      1.0000      0.3766      0.9500      0.5000      0.9500      0.0500      0.0100           0
Od23-a-3220     D                  1000.0000      0.0000    120.0000    875.4332      1.0000      0.6885      0.9500      0.5000      0.9500      0.0500      0.0100           0
Od23-a-3220     D                  1000.0000      0.0000    120.0000    875.4332      1.0000      0.5919      0.9500      0.5000      0.9500      0.0500      0.0100           0
Od23-a-3220     D                  1000.0000      0.0000    120.0000    875.4332      1.0000      0.4373      0.9500      0.5000      0.9500      0.0500      0.0100           0
Od23-a-3220     D                  1000.0000      0.0000    120.0000    875.4332      1.0000      0.5682      0.9500      0.5000      0.9500      0.0500      0.0100           0
Od23-a-3220     D                  1000.0000      0.0000    120.0000    875.4332      1.0000      0.5299      0.9500      0.5000      0.9500      0.0500      0.0100           0
Od23-a-3220     D                  1000.0000      0.0000    120.0000    875.4332      1.0000      0.6811      0.9500      0.5000      0.9500      0.0500      0.0100           0
Od23-a-3220     D                  1000.0000      0.0000    120.0000    875.4332      1.0000      0.9574      0.9500      0.5000      0.9500      0.0500      0.0100           0
Od23-a-3220     D                  1000.0000      0.0000    120.0000    875.4332      1.0000      0.4609      0.9500      0.5000      0.9500      0.0500      0.0100           0
Od23-a-3220     D                  1000.0000      0.0000    120.0000    875.4332      1.0000      0.4251      0.9500      0.5000      0.9500      0.0500      0.0100           0
Od23-a-3220     D                  1000.0000      0.0000    120.0000    875.4332      1.0000      0.9742      0.9500      0.5000      0.9500      0.0500      0.0100           0
Od23-a-3220     D                  1000.0000      0.0000    120.0000    875.4332      1.0000      0.7979      0.9500      0.5000      0.9500      0.0500      0.0100           0
Od23-a-3220     D                  1000.0000      0.0000    120.0000    875.4332      0.7500      0.6282      0.9500      0.5000      0.9500      0.0500      0.0100           0
Od23-a-3220     D                  1000.0000      0.0000    120.0000    875.4332      1.0000      0.4745      0.9500      0.5000      0.9500      0.0500      0.0100           0
I-Po-1-2b-3117  B                  1000.0000      0.0000     70.0000    454.0212      1.0000      0.6591      0.9500      0.5000      0.9500      0.9000      0.0100           0
I-Po-1-2b-3117  B                  1000.0000      0.0000     70.0000    454.0212      1.0000      0.6174      0.9500      0.5000      0.9500      0.9000      0.0100           0
Po32-1-2a-6610  B                  1000.0000      0.0000     90.0000    602.8438      1.0000      1.0950      0.9500      0.5000      0.9500      0.9000      0.0100           0
Po32-1-2a-6610  B                  1000.0000      0.0000     90.0000    602.8438      1.0000      0.8502      0.9500      0.5000      0.9500      0.9000      0.0100           0
Po32-1-2a-6610  B                  1000.0000      0.0000     90.0000    602.8438      1.0000      0.5801      0.9500      0.5000      0.9500      0.9000      0.0100           0
Po32-1-2a-6610  B                  1000.0000      0.0000     90.0000    602.8438      1.0000      0.6626      0.9500      0.5000      0.9500      0.9000      0.0100           0
Po32-1-2a-6610  B                  1000.0000      0.0000     90.0000    602.8438      1.0000      0.2597      0.9500      0.5000      0.9500      0.9000      0.0100           0
Po32-1-2a-6610  B                  1000.0000      0.0000     90.0000    602.8438      1.0000      0.6808      0.9500      0.5000      0.9500      0.9000      0.0100           0
Po32-1-2a-6610  B                  1000.0000      0.0000     90.0000    602.8438      1.0000      0.6760      0.9500      0.5000      0.9500      0.9000      0.0100           0
Po32-1-2a-6610  B                  1000.0000      0.0000     90.0000    602.8438      1.0000      0.4415      0.9500      0.5000      0.9500      0.9000      0.0100           0
Po32-1-2a-6610  B                  1000.0000      0.0000     90.0000    602.8438      1.0000      0.1047      0.9500      0.5000      0.9500      0.9000      0.0100           0
I-Po-1-2b-3117  B                  1000.0000      0.0000     70.0000    454.0212      1.0000      0.5514      0.9500      0.5000      0.9500      0.9000      0.0100           0
I-Po-1-2b-3117  B                  1000.0000      0.0000     70.0000    454.0212      1.0000      0.6017      0.9500      0.5000      0.9500      0.9000      0.0100           0
Po32-1-2a-6610  B                  1000.0000      0.0000     90.0000    602.8438      1.0000      0.7605      0.9500      0.5000      0.9500      0.9000      0.0100           0
Po32-1-2a-6610  B                  1000.0000      0.0000     90.0000    602.8438      1.0000      0.6550      0.9500      0.5000      0.9500      0.9000      0.0100           0
Po32-1-2a-6610  B                  1000.0000      0.0000     90.0000    602.8438      1.0000      0.6155      0.9500      0.5000      0.9500      0.9000      0.0100           0
Po32-1-2a-6610  B                  1000.0000      0.0000     90.0000    602.8438      1.0000      0.7885      0.9500      0.5000      0.9500      0.9000      0.0100           0
Po32-1-2a-6610  B                  1000.0000      0.0000     90.0000    602.8438      1.0000      0.6670      0.9500      0.5000      0.9500      0.9000      0.0100           0
Po32-1-2a-6610  B                  1000.0000      0.0000     90.0000    602.8438      1.0000      0.2898      0.9500      0.5000      0.9500      0.9000      0.0100           0
Po32-1-2a-6610  B                  1000.0000      0.0000     90.0000    602.8438      1.0000      0.3168      0.9500      0.5000      0.9500      0.9000      0.0100           0
Po32-1-2a-6610  B                  1000.0000      0.0000     90.0000    602.8438      1.0000      0.4188      0.9500      0.5000      0.9500      0.9000      0.0100           0
Po32-1-2a-6610  B                  1000.0000      0.0000     90.0000    602.8438      1.0000      0.3986      0.9500      0.5000      0.9500      0.9000      0.0100           0
Po32-1-2a-6610  B                  1000.0000      0.0000     90.0000    602.8438      1.0000      0.4996      0.9500      0.5000      0.9500      0.9000      0.0100           0
Po32-1-2a-6610  B                  1000.0000      0.0000     90.0000    602.8438      1.0000      0.5501      0.9500      0.5000      0.9500      0.9000      0.0100           0
Po32-1-2a-6610  B                  1000.0000      0.0000     90.0000    602.8438      1.0000      0.3356      0.9500      0.5000      0.9500      0.9000      0.0100           0
Po32-1-2a-6610  B                  1000.0000      0.0000     90.0000    602.8438      1.0000      0.2819      0.9500      0.5000      0.9500      0.9000      0.0100           0
Po32-1-2a-6610  B                  1000.0000      0.0000     90.0000    602.8438      1.0000      0.1372      0.9500      0.5000      0.9500      0.9000      0.0100           0
Po32-1-2a-6610  B                  1000.0000      0.0000     90.0000    602.8438      1.0000      0.0671      0.9500      0.5000      0.9500      0.9000      0.0100           0
I-Po-1-2b-3117  B                  1000.0000      0.0000     70.0000    454.0212      1.0000      0.9065      0.9500      0.5000      0.9500      0.9000      0.0100           0
Po32-1-2a-6610  B                  1000.0000      0.0000     90.0000    602.8438      1.0000      0.4142      0.9500      0.5000      0.9500      0.9000      0.0100           0
I-Po-1-2b-3117  B                  1000.0000      0.0000     70.0000    454.0212      1.0000      0.6207      0.9500      0.5000      0.9500      0.9000      0.0100           0
Po32-1-2a-6610  B                  1000.0000      0.0000     90.0000    602.8438      1.0000      0.4073      0.9500      0.5000      0.9500      0.9000      0.0100           0
Po32-1-2a-6610  B                  1000.0000      0.0000     90.0000    602.8438      1.0000      0.6206      0.9500      0.5000      0.9500      0.9000      0.0100           0
Po32-1-2a-6610  B                  1000.0000      0.0000     90.0000    602.8438      1.0000      0.5387      0.9500      0.5000      0.9500      0.9000      0.0100           0
I-Po-1-2b-3117  B                  1000.0000      0.0000     70.0000    454.0212      1.0000      0.9542      0.9500      0.5000      0.9500      0.9000      0.0100           0
Po32-1-2a-6610  B                  1000.0000      0.0000     90.0000    602.8438      1.0000      0.1522      0.9500      0.5000      0.9500      0.9000      0.0100           0
Po32-1-2a-6610  B                  1000.0000      0.0000     90.0000    602.8438      1.0000      0.1095      0.9500      0.5000      0.9500      0.9000      0.0100           0
Po32-1-2a-6610  B                  1000.0000      0.0000     90.0000    602.8438      1.0000      0.0712      0.9500      0.5000      0.9500      0.9000      0.0100           0
Po32-1-2a-6610  B                  1000.0000      0.0000     90.0000    602.8438      1.0000      0.4436      0.9500      0.5000      0.9500      0.9000      0.0100           0
Po32-1-2a-6610  B                  1000.0000      0.0000     90.0000    602.8438      1.0000      0.6263      0.9500      0.5000      0.9500      0.9000      0.0100           0
Po32-1-2a-6610  B                  1000.0000      0.0000     90.0000    602.8438      1.0000      0.5525      0.9500      0.5000      0.9500      0.9000      0.0100           0
Po32-1-2a-6610  B                  1000.0000      0.0000     90.0000    602.8438      1.0000      0.1795      0.9500      0.5000      0.9500      0.9000      0.0100           0
Po32-1-2a-6610  B                  1000.0000      0.0000     90.0000    602.8438      1.0000      0.9996      0.9500      0.5000      0.9500      0.9000      0.0100           0
Po32-1-2a-6610  B                  1000.0000      0.0000     90.0000    602.8438      1.0000      0.6635      0.9500      0.5000      0.9500      0.9000      0.0100           0
Po32-1-2a-6610  B                  1000.0000      0.0000     90.0000    602.8438      1.0000      0.5911      0.9500      0.5000      0.9500      0.9000      0.0100           0
Po32-1-2a-6610  B                  1000.0000      0.0000     90.0000    602.8438      1.0000      0.4306      0.9500      0.5000      0.9500      0.9000      0.0100           0
Po32-1-2a-6610  B                  1000.0000      0.0000     90.0000    602.8438      1.0000      0.6949      0.9500      0.5000      0.9500      0.9000      0.0100           0
Po32-1-2a-6610  B                  1000.0000      0.0000     90.0000    602.8438      1.0000      0.6267      0.9500      0.5000      0.9500      0.9000      0.0100           0
Po32-1-2a-6610  B                  1000.0000      0.0000     90.0000    602.8438      1.0000      0.6775      0.9500      0.5000      0.9500      0.9000      0.0100           0
Po32-1-2a-6610  B                  1000.0000      0.0000     90.0000    602.8438      1.0000      0.2498      0.9500      0.5000      0.9500      0.9000      0.0100           0
Po32-1-2a-6610  B                  1000.0000      0.0000     90.0000    602.8438      1.0000      0.3141      0.9500      0.5000      0.9500      0.9000      0.0100           0
Po32-1-2a-6610  B                  1000.0000      0.0000     90.0000    602.8438      1.0000      0.2920      0.9500      0.5000      0.9500      0.9000      0.0100           0
Po32-1-2a-6610  B                  1000.0000      0.0000     90.0000    602.8438      1.0000      0.6288      0.9500      0.5000      0.9500      0.9000      0.0100           0
Po32-1-2a-6610  B                  1000.0000      0.0000     90.0000    602.8438      1.0000      0.4695      0.9500      0.5000      0.9500      0.9000      0.0100           0
Po32-1-2a-6610  B                  1000.0000      0.0000     90.0000    602.8438      1.0000      0.4003      0.9500      0.5000      0.9500      0.9000      0.0100           0
Po32-1-2a-6610  B                  1000.0000      0.0000     90.0000    602.8438      1.0000      0.1202      0.9500      0.5000      0.9500      0.9000      0.0100           0
Po32-1-2a-6610  B                  1000.0000      0.0000     90.0000    602.8438      1.0000      0.5610      0.9500      0.5000      0.9500      0.9000      0.0100           0
Po32-1-2a-6610  B                  1000.0000      0.0000     90.0000    602.8438      1.0000      0.3888      0.9500      0.5000      0.9500      0.9000      0.0100           0
Po32-1-2a-6610  B                  1000.0000      0.0000     90.0000    602.8438      1.0000      0.6490      0.9500      0.5000      0.9500      0.9000      0.0100           0
Po32-1-2a-6610  B                  1000.0000      0.0000     90.0000    602.8438      1.0000      0.5661      0.9500      0.5000      0.9500      0.9000      0.0100           0
Po32-1-2a-6610  B                  1000.0000      0.0000     90.0000    602.8438      1.0000      0.3789      0.9500      0.5000      0.9500      0.9000      0.0100           0
Po32-1-2a-6610  B                  1000.0000      0.0000     90.0000    602.8438      1.0000      0.3871      0.9500      0.5000      0.9500      0.9000      0.0100           0
Po32-1-2a-6610  B                  1000.0000      0.0000     90.0000    602.8438      1.0000      0.6244      0.9500      0.5000      0.9500      0.9000      0.0100           0
Po32-1-2a-6610  B                  1000.0000      0.0000     90.0000    602.8438      1.0000      0.3557      0.9500      0.5000      0.9500      0.9000      0.0100           0
Po32-1-2a-6610  B                  1000.0000      0.0000     90.0000    602.8438      1.0000      0.9660      0.9500      0.5000      0.9500      0.9000      0.0100           0
Po32-1-2a-6610  B                  1000.0000      0.0000     90.0000    602.8438      1.0000      0.2488      0.9500      0.5000      0.9500      0.9000      0.0100           0
Po32-1-2a-6610  B                  1000.0000      0.0000     90.0000    602.8438      1.0000      0.5437      0.9500      0.5000      0.9500      0.9000      0.0100           0
Po32-1-2a-6610  B                  1000.0000      0.0000     90.0000    602.8438      1.0000      0.8368      0.9500      0.5000      0.9500      0.9000      0.0100           0
Po32-1-2a-6610  B                  1000.0000      0.0000     90.0000    602.8438      1.0000      0.6069      0.9500      0.5000      0.9500      0.9000      0.0100           0
Od23-a-3220     D                  1000.0000      0.0000    120.0000    875.4332      1.0000      0.6135      0.9500      0.5000      0.9500      0.0500      0.0100           0
Po32-1-2a-6610  B                  1000.0000      0.0000     90.0000    602.8438      1.0000      0.7460      0.9500      0.5000      0.9500      0.9000      0.0100           0
Od23-a-3220     D                  1000.0000      0.0000    120.0000    875.4332      1.0000      0.4354      0.9500      0.5000      0.9500      0.0500      0.0100           0
Po32-1-2a-6610  B                  1000.0000      0.0000     90.0000    602.8438      1.0000      0.2890      0.9500      0.5000      0.9500      0.9000      0.0100           0
Od23-a-3220     D                  1000.0000      0.0000    120.0000    875.4332      1.0000      0.3258      0.9500      0.5000      0.9500      0.0500      0.0100           0
Od23-a-3220     D                  1000.0000      0.0000    120.0000    875.4332      1.0000      0.5059      0.9500      0.5000      0.9500      0.0500      0.0100           0
Od23-a-3220     D                  1000.0000      0.0000    120.0000    875.4332      1.0000      0.4141      0.9500      0.5000      0.9500      0.0500      0.0100           0
Od23-a-3220     D                  1000.0000      0.0000    120.0000    875.4332      1.0000      0.4474      0.9500      0.5000      0.9500      0.0500      0.0100           0
Od23-a-3220     D                  1000.0000      0.0000    120.0000    875.4332      1.0000      0.6015      0.9500      0.5000      0.9500      0.0500      0.0100           0
Od23-a-3220     D                  1000.0000      0.0000    120.0000    875.4332      1.0000      0.5869      0.9500      0.5000      0.9500      0.0500      0.0100           0
Od23-a-3220     D                  1000.0000      0.0000    120.0000    875.4332      1.0000      0.5272      0.9500      0.5000      0.9500      0.0500      0.0100           0
Od23-a-3220     D                  1000.0000      0.0000    120.0000    875.4332      1.0000      0.2903      0.9500      0.5000      0.9500      0.0500      0.0100           0
Po32-1-2a-6610  B                  1000.0000      0.0000     90.0000    602.8438      1.0000      0.6049      0.9500      0.5000      0.9500      0.9000      0.0100           0
Po32-1-2a-6610  B                  1000.0000      0.0000     90.0000    602.8438      1.0000      0.2175      0.9500      0.5000      0.9500      0.9000      0.0100           0
Po32-1-2a-6610  B                  1000.0000      0.0000     90.0000    602.8438      1.0000      0.6753      0.9500      0.5000      0.9500      0.9000      0.0100           0
Po32-1-2a-6610  B                  1000.0000      0.0000     90.0000    602.8438      1.0000      0.3657      0.9500      0.5000      0.9500      0.9000      0.0100           0
Po32-1-2a-6610  B                  1000.0000      0.0000     90.0000    602.8438      1.0000      0.9967      0.9500      0.5000      0.9500      0.9000      0.0100           0
Po32-1-2a-6610  B                  1000.0000      0.0000     90.0000    602.8438      1.0000      0.5739      0.9500      0.5000      0.9500      0.9000      0.0100           0
Po32-1-2a-6610  B                  1000.0000      0.0000     90.0000    602.8438      1.0000      0.6512      0.9500      0.5000      0.9500      0.9000      0.0100           0
Po32-1-2a-6610  B                  1000.0000      0.0000     90.0000    602.8438      1.0000      0.3206      0.9500      0.5000      0.9500      0.9000      0.0100           0
Po32-1-2a-6610  B                  1000.0000      0.0000     90.0000    602.8438      1.0000      0.7016      0.9500      0.5000      0.9500      0.9000      0.0100           0
Po32-1-2a-6610  B                  1000.0000      0.0000     90.0000    602.8438      1.0000      0.5872      0.9500      0.5000      0.9500      0.9000      0.0100           0
Po32-1-2a-6610  B                  1000.0000      0.0000     90.0000    602.8438      1.0000      0.4413      0.9500      0.5000      0.9500      0.9000      0.0100           0
Po32-1-2a-6610  B                  1000.0000      0.0000     90.0000    602.8438      1.0000      0.5497      0.9500      0.5000      0.9500      0.9000      0.0100           0
Po32-1-2a-6610  B                  1000.0000      0.0000     90.0000    602.8438      1.0000      0.4039      0.9500      0.5000      0.9500      0.9000      0.0100           0
Po32-1-2a-6610  B                  1000.0000      0.0000     90.0000    602.8438      1.0000      0.2724      0.9500      0.5000      0.9500      0.9000      0.0100           0
Po32-1-2a-6610  B                  1000.0000      0.0000     90.0000    602.8438      1.0000      0.3332      0.9500      0.5000      0.9500      0.9000      0.0100           0
Po32-1-2a-6610  B                  1000.0000      0.0000     90.0000    602.8438      1.0000      0.6660      0.9500      0.5000      0.9500      0.9000      0.0100           0
Po32-1-2a-6610  B                  1000.0000      0.0000     90.0000    602.8438      1.0000      0.4325      0.9500      0.5000      0.9500      0.9000      0.0100           0
Po32-1-2a-6610  B                  1000.0000      0.0000     90.0000    602.8438      1.0000      0.4539      0.9500      0.5000      0.9500      0.9000      0.0100           0
Po32-1-2a-6610  B                  1000.0000      0.0000     90.0000    602.8438      1.0000      0.4079      0.9500      0.5000      0.9500      0.9000      0.0100           0
Po32-1-2a-6610  B                  1000.0000      0.0000     90.0000    602.8438      1.0000      0.0860      0.9500      0.5000      0.9500      0.9000      0.0100           0
Po32-1-2a-6610  B                  1000.0000      0.0000     90.0000    602.8438      1.0000      0.2746      0.9500      0.5000      0.9500      0.9000      0.0100           0
Po32-1-2a-6610  B                  1000.0000      0.0000     90.0000    602.8438      1.0000      0.3235      0.9500      0.5000      0.9500      0.9000      0.0100           0
Po32-1-2a-6610  B                  1000.0000      0.0000     90.0000    602.8438      1.0000      0.6273      0.9500      0.5000      0.9500      0.9000      0.0100           0
Od23-a-3220     D                  1000.0000      0.0000    120.0000    875.4332      1.0000      0.6470      0.9500      0.5000      0.9500      0.0500      0.0100           0
Od23-a-3220     D                  1000.0000      0.0000    120.0000    875.4332      1.0000      0.5838      0.9500      0.5000      0.9500      0.0500      0.0100           0
Od23-a-3220     D                  1000.0000      0.0000    120.0000    875.4332      0.7500      0.3247      0.9500      0.5000      0.9500      0.0500      0.0100           0
Od23-a-3220     D                  1000.0000      0.0000    120.0000    875.4332      1.0000      0.8872      0.9500      0.5000      0.9500      0.0500      0.0100           0
Od23-a-3220     D                  1000.0000      0.0000    120.0000    875.4332      1.0000      0.9010      0.9500      0.5000      0.9500      0.0500      0.0100           0
Od23-a-3220     D                  1000.0000      0.0000    120.0000    875.4332      1.0000      0.6729      0.9500      0.5000      0.9500      0.0500      0.0100           0
Od23-a-3220     D                  1000.0000      0.0000    120.0000    875.4332      1.0000      0.5988      0.9500      0.5000      0.9500      0.0500      0.0100           0
Od23-a-3220     D                  1000.0000      0.0000    120.0000    875.4332      1.0000      0.5625      0.9500      0.5000      0.9500      0.0500      0.0100           0
Od23-a-3220     D                  1000.0000      0.0000    120.0000    875.4332      1.0000      0.5439      0.9500      0.5000      0.9500      0.0500      0.0100           0
Od23-a-3220     D                  1000.0000      0.0000    120.0000    875.4332      1.0000      0.5618      0.9500      0.5000      0.9500      0.0500      0.0100           0
Od23-a-3220     D                  1000.0000      0.0000    120.0000    875.4332      1.0000      0.8047      0.9500      0.5000      0.9500      0.0500      0.0100           0
Od23-a-3220     D                  1000.0000      0.0000    120.0000    875.4332      1.0000      0.9815      0.9500      0.5000      0.9500      0.0500      0.0100           0
Od23-a-3220     D                  1000.0000      0.0000    120.0000    875.4332      1.0000      0.6913      0.9500      0.5000      0.9500      0.0500      0.0100           0
Od23-a-3220     D                  1000.0000      0.0000    120.0000    875.4332      1.0000      0.7001      0.9500      0.5000      0.9500      0.0500      0.0100           0
Od23-a-3220     D                  1000.0000      0.0000    120.0000    875.4332      1.0000      0.7155      0.9500      0.5000      0.9500      0.0500      0.0100           0
Od23-a-3220     D                  1000.0000      0.0000    120.0000    875.4332      1.0000      0.7436      0.9500      0.5000      0.9500      0.0500      0.0100           0
Od23-a-3220     D                  1000.0000      0.0000    120.0000    875.4332      1.0000      0.4476      0.9500      0.5000      0.9500      0.0500      0.0100           0
Od23-a-3220     D                  1000.0000      0.0000    120.0000    875.4332      1.0000      0.6658      0.9500      0.5000      0.9500      0.0500      0.0100           0
Od23-a-3220     D                  1000.0000      0.0000    120.0000    875.4332      1.0000      0.6670      0.9500      0.5000      0.9500      0.0500      0.0100           0
Po32-1-2a-6610  B                  1000.0000      0.0000     90.0000    602.8438      1.0000      0.5260      0.9500      0.5000      0.9500      0.9000      0.0100           0
Po32-1-2a-6610  B                  1000.0000      0.0000     90.0000    602.8438      1.0000      0.1871      0.9500      0.5000      0.9500      0.9000      0.0100           0
Po32-1-2a-6610  B                  1000.0000      0.0000     90.0000    602.8438      1.0000      0.4060      0.9500      0.5000      0.9500      0.9000      0.0100           0
Po32-1-2a-6610  B                  1000.0000      0.0000     90.0000    602.8438      1.0000      0.4642      0.9500      0.5000      0.9500      0.9000      0.0100           0
Po32-1-2a-6610  B                  1000.0000      0.0000     90.0000    602.8438      1.0000      0.1549      0.9500      0.5000      0.9500      0.9000      0.0100           0
Po32-1-2a-6610  B                  1000.0000      0.0000     90.0000    602.8438      1.0000      0.1873      0.9500      0.5000      0.9500      0.9000      0.0100           0
Po32-1-2a-6610  B                  1000.0000      0.0000     90.0000    602.8438      1.0000      0.2462      0.9500      0.5000      0.9500      0.9000      0.0100           0
Od23-a-3220     D                  1000.0000      0.0000    120.0000    875.4332      1.0000      0.5953      0.9500      0.5000      0.9500      0.0500      0.0100           0
Po32-1-2a-6610  B                  1000.0000      0.0000     90.0000    602.8438      1.0000      0.6418      0.9500      0.5000      0.9500      0.9000      0.0100           0
Od23-a-3220     D                  1000.0000      0.0000    120.0000    875.4332      1.0000      0.4778      0.9500      0.5000      0.9500      0.0500      0.0100           0
Od23-a-3220     D                  1000.0000      0.0000    120.0000    875.4332      1.0000      0.4056      0.9500      0.5000      0.9500      0.0500      0.0100           0
Od23-a-3220     D                  1000.0000      0.0000    120.0000    875.4332      1.0000      0.4022      0.9500      0.5000      0.9500      0.0500      0.0100           0
Od23-a-3220     D                  1000.0000      0.0000    120.0000    875.4332      1.0000      0.3991      0.9500      0.5000      0.9500      0.0500      0.0100           0
Od23-a-3220     D                  1000.0000      0.0000    120.0000    875.4332      1.0000      0.5533      0.9500      0.5000      0.9500      0.0500      0.0100           0
Od23-a-3220     D                  1000.0000      0.0000    120.0000    875.4332      1.0000      0.6518      0.9500      0.5000      0.9500      0.0500      0.0100           0
Od23-a-3220     D                  1000.0000      0.0000    120.0000    875.4332      1.0000      0.8957      0.9500      0.5000      0.9500      0.0500      0.0100           0
Od23-a-3220     D                  1000.0000      0.0000    120.0000    875.4332      1.0000      0.6099      0.9500      0.5000      0.9500      0.0500      0.0100           0
Od23-a-3220     D                  1000.0000      0.0000    120.0000    875.4332      1.0000      0.9313      0.9500      0.5000      0.9500      0.0500      0.0100           0
Po32-1-2a-6610  B                  1000.0000      0.0000     90.0000    602.8438      1.0000      0.5999      0.9500      0.5000      0.9500      0.9000      0.0100           0
Po32-1-2a-6610  B                  1000.0000      0.0000     90.0000    602.8438      1.0000      0.5631      0.9500      0.5000      0.9500      0.9000      0.0100           0
Po32-1-2a-6610  B                  1000.0000      0.0000     90.0000    602.8438      1.0000      0.5436      0.9500      0.5000      0.9500      0.9000      0.0100           0
Po32-1-2a-6610  B                  1000.0000      0.0000     90.0000    602.8438      1.0000      0.9978      0.9500      0.5000      0.9500      0.9000      0.0100           0
Po32-1-2a-6610  B                  1000.0000      0.0000     90.0000    602.8438      1.0000      0.7514      0.9500      0.5000      0.9500      0.9000      0.0100           0
Po32-1-2a-6610  B                  1000.0000      0.0000     90.0000    602.8438      1.0000      0.7139      0.9500      0.5000      0.9500      0.9000      0.0100           0
Po32-1-2a-6610  B                  1000.0000      0.0000     90.0000    602.8438      1.0000      0.6102      0.9500      0.5000      0.9500      0.9000      0.0100           0
Po32-1-2a-6610  B                  1000.0000      0.0000     90.0000    602.8438      1.0000      0.6941      0.9500      0.5000      0.9500      0.9000      0.0100           0
Po32-1-2a-6610  B                  1000.0000      0.0000     90.0000    602.8438      1.0000      0.4112      0.9500      0.5000      0.9500      0.9000      0.0100           0
Po32-1-2a-6610  B                  1000.0000      0.0000     90.0000    602.8438      1.0000      0.4039      0.9500      0.5000      0.9500      0.9000      0.0100           0
Po32-1-2a-6610  B                  1000.0000      0.0000     90.0000    602.8438      1.0000      0.5110      0.9500      0.5000      0.9500      0.9000      0.0100           0
Po32-1-2a-6610  B                  1000.0000      0.0000     90.0000    602.8438      1.0000      0.5881      0.9500      0.5000      0.9500      0.9000      0.0100           0
Po32-1-2a-6610  B                  1000.0000      0.0000     90.0000    602.8438      1.0000      0.3947      0.9500      0.5000      0.9500      0.9000      0.0100           0
Po32-1-2a-6610  B                  1000.0000      0.0000     90.0000    602.8438      1.0000      0.2931      0.9500      0.5000      0.9500      0.9000      0.0100           0
Po32-1-2a-6610  B                  1000.0000      0.0000     90.0000    602.8438      1.0000      0.6273      0.9500      0.5000      0.9500      0.9000      0.0100           0
Po32-1-2a-6610  B                  1000.0000      0.0000     90.0000    602.8438      1.0000      0.3914      0.9500      0.5000      0.9500      0.9000      0.0100           0
Po32-1-2a-6610  B                  1000.0000      0.0000     90.0000    602.8438      1.0000      0.5744      0.9500      0.5000      0.9500      0.9000      0.0100           0
Po32-1-2a-6610  B                  1000.0000      0.0000     90.0000    602.8438      1.0000      0.8755      0.9500      0.5000      0.9500      0.9000      0.0100           0
Po32-1-2a-6610  B                  1000.0000      0.0000     90.0000    602.8438      1.0000      0.3657      0.9500      0.5000      0.9500      0.9000      0.0100           0
Po32-1-2a-6610  B                  1000.0000      0.0000     90.0000    602.8438      1.0000      0.7323      0.9500      0.5000      0.9500      0.9000      0.0100           0
Po32-1-2a-6610  B                  1000.0000      0.0000     90.0000    602.8438      1.0000      0.6418      0.9500      0.5000      0.9500      0.9000      0.0100           0
Po32-1-2a-6610  B                  1000.0000      0.0000     90.0000    602.8438      1.0000      0.5807      0.9500      0.5000      0.9500      0.9000      0.0100           0
Po32-1-2a-6610  B                  1000.0000      0.0000     90.0000    602.8438      1.0000      0.6340      0.9500      0.5000      0.9500      0.9000      0.0100           0
Po32-1-2a-6610  B                  1000.0000      0.0000     90.0000    602.8438      1.0000      0.3875      0.9500      0.5000      0.9500      0.9000      0.0100           0
Po32-1-2a-6610  B                  1000.0000      0.0000     90.0000    602.8438      1.0000      0.6193      0.9500      0.5000      0.9500      0.9000      0.0100           0
Po32-1-2a-6610  B                  1000.0000      0.0000     90.0000    602.8438      1.0000      0.6249      0.9500      0.5000      0.9500      0.9000      0.0100           0
Po32-1-2a-6610  B                  1000.0000      0.0000     90.0000    602.8438      1.0000      0.3925      0.9500      0.5000      0.9500      0.9000      0.0100           0
Po32-1-2a-6610  B                  1000.0000      0.0000     90.0000    602.8438      1.0000      0.7934      0.9500      0.5000      0.9500      0.9000      0.0100           0
Po32-1-2a-6610  B                  1000.0000      0.0000     90.0000    602.8438      1.0000      0.5405      0.9500      0.5000      0.9500      0.9000      0.0100           0
Od23-a-3220     D                  1000.0000      0.0000    120.0000    875.4332      1.0000      0.7061      0.9500      0.5000      0.9500      0.0500      0.0100           0
Od23-a-3220     D                  1000.0000      0.0000    120.0000    875.4332      1.0000      0.4408      0.9500      0.5000      0.9500      0.0500      0.0100           0
Od23-a-3220     D                  1000.0000      0.0000    120.0000    875.4332      1.0000      0.6978      0.9500      0.5000      0.9500      0.0500      0.0100           0
Od23-a-3220     D                  1000.0000      0.0000    120.0000    875.4332      1.0000      0.4691      0.9500      0.5000      0.9500      0.0500      0.0100           0
Od23-a-3220     D                  1000.0000      0.0000    120.0000    875.4332      1.0000      0.2857      0.9500      0.5000      0.9500      0.0500      0.0100           0
Po32-1-2a-6610  B                  1000.0000      0.0000     90.0000    602.8438      1.0000      0.7747      0.9500      0.5000      0.9500      0.9000      0.0100           0
Po32-1-2a-6610  B                  1000.0000      0.0000     90.0000    602.8438      1.0000      0.7806      0.9500      0.5000      0.9500      0.9000      0.0100           0
Po32-1-2a-6610  B                  1000.0000      0.0000     90.0000    602.8438      1.0000      0.6453      0.9500      0.5000      0.9500      0.9000      0.0100           0
Po32-1-2a-6610  B                  1000.0000      0.0000     90.0000    602.8438      1.0000      0.6157      0.9500      0.5000      0.9500      0.9000      0.0100           0
Po32-1-2a-6610  B                  1000.0000      0.0000     90.0000    602.8438      1.0000      0.5587      0.9500      0.5000      0.9500      0.9000      0.0100           0
Po32-1-2a-6610  B                  1000.0000      0.0000     90.0000    602.8438      1.0000      0.7186      0.9500      0.5000      0.9500      0.9000      0.0100           0
Po32-1-2a-6610  B                  1000.0000      0.0000     90.0000    602.8438      1.0000      0.7437      0.9500      0.5000      0.9500      0.9000      0.0100           0
Po32-1-2a-6610  B                  1000.0000      0.0000     90.0000    602.8438      1.0000      0.7076      0.9500      0.5000      0.9500      0.9000      0.0100           0
Po32-1-2a-6610  B                  1000.0000      0.0000     90.0000    602.8438      1.0000      0.7187      0.9500      0.5000      0.9500      0.9000      0.0100           0
Po32-1-2a-6610  B                  1000.0000      0.0000     90.0000    602.8438      1.0000      0.6815      0.9500      0.5000      0.9500      0.9000      0.0100           0
Po32-1-2a-6610  B                  1000.0000      0.0000     90.0000    602.8438      1.0000      0.1573      0.9500      0.5000      0.9500      0.9000      0.0100           0
Po32-1-2a-6610  B                  1000.0000      0.0000     90.0000    602.8438      1.0000      0.9909      0.9500      0.5000      0.9500      0.9000      0.0100           0
Po32-1-2a-6610  B                  1000.0000      0.0000     90.0000    602.8438      1.0000      0.2040      0.9500      0.5000      0.9500      0.9000      0.0100           0
Po32-1-2a-6610  B                  1000.0000      0.0000     90.0000    602.8438      1.0000      0.5492      0.9500      0.5000      0.9500      0.9000      0.0100           0
Po32-1-2a-6610  B                  1000.0000      0.0000     90.0000    602.8438      1.0000      0.3685      0.9500      0.5000      0.9500      0.9000      0.0100           0
Po32-1-2a-6610  B                  1000.0000      0.0000     90.0000    602.8438      1.0000      0.5751      0.9500      0.5000      0.9500      0.9000      0.0100           0
Po32-1-2a-6610  B                  1000.0000      0.0000     90.0000    602.8438      1.0000      0.2242      0.9500      0.5000      0.9500      0.9000      0.0100           0
Po32-1-2a-6610  B                  1000.0000      0.0000     90.0000    602.8438      1.0000      0.5510      0.9500      0.5000      0.9500      0.9000      0.0100           0
Po32-1-2a-6610  B                  1000.0000      0.0000     90.0000    602.8438      1.0000      0.2220      0.9500      0.5000      0.9500      0.9000      0.0100           0
Po32-1-2a-6610  B                  1000.0000      0.0000     90.0000    602.8438      1.0000      0.2267      0.9500      0.5000      0.9500      0.9000      0.0100           0
Po32-1-2a-6610  B                  1000.0000      0.0000     90.0000    602.8438      1.0000      0.3523      0.9500      0.5000      0.9500      0.9000      0.0100           0
Po32-1-2a-6610  B                  1000.0000      0.0000     90.0000    602.8438      1.0000      0.4529      0.9500      0.5000      0.9500      0.9000      0.0100           0
Od23-a-3220     D                  1000.0000      0.0000    120.0000    875.4332      1.0000      0.6536      0.9500      0.5000      0.9500      0.0500      0.0100           0
Od23-a-3220     D                  1000.0000      0.0000    120.0000    875.4332      1.0000      0.6790      0.9500      0.5000      0.9500      0.0500      0.0100           0
Od23-a-3220     D                  1000.0000      0.0000    120.0000    875.4332      1.0000      0.6153      0.9500      0.5000      0.9500      0.0500      0.0100           0
Po32-1-2a-6610  B                  1000.0000      0.0000     90.0000    602.8438      1.0000      0.7238      0.9500      0.5000      0.9500      0.9000      0.0100           0
Po32-1-2a-6610  B                  1000.0000      0.0000     90.0000    602.8438      1.0000      0.5187      0.9500      0.5000      0.9500      0.9000      0.0100           0
Po32-1-2a-6610  B                  1000.0000      0.0000     90.0000    602.8438      1.0000      0.5826      0.9500      0.5000      0.9500      0.9000      0.0100           0
Po32-1-2a-6610  B                  1000.0000      0.0000     90.0000    602.8438      1.0000      0.5525      0.9500      0.5000      0.9500      0.9000      0.0100           0
Po32-1-2a-6610  B                  1000.0000      0.0000     90.0000    602.8438      1.0000      0.9927      0.9500      0.5000      0.9500      0.9000      0.0100           0
Po32-1-2a-6610  B                  1000.0000      0.0000     90.0000    602.8438      1.0000      0.8363      0.9500      0.5000      0.9500      0.9000      0.0100           0
Po32-1-2a-6610  B                  1000.0000      0.0000     90.0000    602.8438      1.0000      0.3637      0.9500      0.5000      0.9500      0.9000      0.0100           0
Po32-1-2a-6610  B                  1000.0000      0.0000     90.0000    602.8438      1.0000      0.6059      0.9500      0.5000      0.9500      0.9000      0.0100           0
Po32-1-2a-6610  B                  1000.0000      0.0000     90.0000    602.8438      1.0000      0.6183      0.9500      0.5000      0.9500      0.9000      0.0100           0
Po32-1-2a-6610  B                  1000.0000      0.0000     90.0000    602.8438      1.0000      0.9214      0.9500      0.5000      0.9500      0.9000      0.0100           0
Po32-1-2a-6610  B                  1000.0000      0.0000     90.0000    602.8438      1.0000      0.6505      0.9500      0.5000      0.9500      0.9000      0.0100           0
Od23-a-3220     D                  1000.0000      0.0000    120.0000    875.4332      1.0000      0.5439      0.9500      0.5000      0.9500      0.0500      0.0100           0
Od23-a-3220     D                  1000.0000      0.0000    120.0000    875.4332      1.0000      0.6592      0.9500      0.5000      0.9500      0.0500      0.0100           0
Od23-a-3220     D                  1000.0000      0.0000    120.0000    875.4332      1.0000      0.8044      0.9500      0.5000      0.9500      0.0500      0.0100           0
Od23-a-3220     D                  1000.0000      0.0000    120.0000    875.4332      1.0000      0.1992      0.9500      0.5000      0.9500      0.0500      0.0100           0
Od23-a-3220     D                  1000.0000      0.0000    120.0000    875.4332      1.0000      0.6508      0.9500      0.5000      0.9500      0.0500      0.0100           0
Od23-a-3220     D                  1000.0000      0.0000    120.0000    875.4332      1.0000      0.6575      0.9500      0.5000      0.9500      0.0500      0.0100           0
Od23-a-3220     D                  1000.0000      0.0000    120.0000    875.4332      1.0000      0.4047      0.9500      0.5000      0.9500      0.0500      0.0100           0
Od23-a-3220     D                  1000.0000      0.0000    120.0000    875.4332      1.0000      0.5966      0.9500      0.5000      0.9500      0.0500      0.0100           0
Od23-a-3220     D                  1000.0000      0.0000    120.0000    875.4332      1.0000      0.6681      0.9500      0.5000      0.9500      0.0500      0.0100           0
Od23-a-3220     D                  1000.0000      0.0000    120.0000    875.4332      1.0000      0.5175      0.9500      0.5000      0.9500      0.0500      0.0100           0
Od23-a-3220     D                  1000.0000      0.0000    120.0000    875.4332      1.0000      0.4885      0.9500      0.5000      0.9500      0.0500      0.0100           0
Od23-a-3220     D                  1000.0000      0.0000    120.0000    875.4332      1.0000      0.6085      0.9500      0.5000      0.9500      0.0500      0.0100           0
Od23-a-3220     D                  1000.0000      0.0000    120.0000    875.4332      1.0000      0.6644      0.9500      0.5000      0.9500      0.0500      0.0100           0
Od23-a-3220     D                  1000.0000      0.0000    120.0000    875.4332      1.0000      0.5057      0.9500      0.5000      0.9500      0.0500      0.0100           0
Od23-a-3220     D                  1000.0000      0.0000    120.0000    875.4332      1.0000      0.6480      0.9500      0.5000      0.9500      0.0500      0.0100           0
Od23-a-3220     D                  1000.0000      0.0000    120.0000    875.4332      1.0000      0.4123      0.9500      0.5000      0.9500      0.0500      0.0100           0
Od23-a-3220     D                  1000.0000      0.0000    120.0000    875.4332      1.0000      0.4710      0.9500      0.5000      0.9500      0.0500      0.0100           0
Od23-a-3220     D                  1000.0000      0.0000    120.0000    875.4332      1.0000      0.5529      0.9500      0.5000      0.9500      0.0500      0.0100           0
Od23-a-3220     D                  1000.0000      0.0000    120.0000    875.4332      1.0000      0.6273      0.9500      0.5000      0.9500      0.0500      0.0100           0
Od23-a-3220     D                  1000.0000      0.0000    120.0000    875.4332      1.0000      0.6058      0.9500      0.5000      0.9500      0.0500      0.0100           0
Od23-a-3220     D                  1000.0000      0.0000    120.0000    875.4332      1.0000      0.6288      0.9500      0.5000      0.9500      0.0500      0.0100           0
Od23-a-3220     D                  1000.0000      0.0000    120.0000    875.4332      1.0000      0.5389      0.9500      0.5000      0.9500      0.0500      0.0100           0
Od23-a-3220     D                  1000.0000      0.0000    120.0000    875.4332      1.0000      0.7210      0.9500      0.5000      0.9500      0.0500      0.0100           0
Od23-a-3220     D                  1000.0000      0.0000    120.0000    875.4332      1.0000      0.6933      0.9500      0.5000      0.9500      0.0500      0.0100           0
Od23-a-3220     D                  1000.0000      0.0000    120.0000    875.4332      0.7500      0.6860      0.9500      0.5000      0.9500      0.0500      0.0100           0
Od23-a-3220     D                  1000.0000      0.0000    120.0000    875.4332      1.0000      0.7084      0.9500      0.5000      0.9500      0.0500      0.0100           0
Po32-1-2a-6610  B                  1000.0000      0.0000     90.0000    602.8438      1.0000      0.5926      0.9500      0.5000      0.9500      0.9000      0.0100           0
Od23-a-3220     D                  1000.0000      0.0000    120.0000    875.4332      1.0000      0.6851      0.9500      0.5000      0.9500      0.0500      0.0100           0
Od23-a-3220     D                  1000.0000      0.0000    120.0000    875.4332      1.0000      0.6061      0.9500      0.5000      0.9500      0.0500      0.0100           0
Od23-a-3220     D                  1000.0000      0.0000    120.0000    875.4332      1.0000      0.6913      0.9500      0.5000      0.9500      0.0500      0.0100           0
Od23-a-3220     D                  1000.0000      0.0000    120.0000    875.4332      1.0000      0.6054      0.9500      0.5000      0.9500      0.0500      0.0100           0
Od23-a-3220     D                  1000.0000      0.0000    120.0000    875.4332      1.0000      0.3956      0.9500      0.5000      0.9500      0.0500      0.0100           0
Po32-1-2a-6610  B                  1000.0000      0.0000     90.0000    602.8438      1.0000      0.4030      0.9500      0.5000      0.9500      0.9000      0.0100           0
Po32-1-2a-6610  B                  1000.0000      0.0000     90.0000    602.8438      1.0000      0.4323      0.9500      0.5000      0.9500      0.9000      0.0100           0
Po32-1-2a-6610  B                  1000.0000      0.0000     90.0000    602.8438      1.0000      0.5010      0.9500      0.5000      0.9500      0.9000      0.0100           0
Od23-a-3220     D                  1000.0000      0.0000    120.0000    875.4332      1.0000      0.5861      0.9500      0.5000      0.9500      0.0500      0.0100           0
Od23-a-3220     D                  1000.0000      0.0000    120.0000    875.4332      1.0000      0.7061      0.9500      0.5000      0.9500      0.0500      0.0100           0
Od23-a-3220     D                  1000.0000      0.0000    120.0000    875.4332      1.0000      0.3956      0.9500      0.5000      0.9500      0.0500      0.0100           0
Od23-a-3220     D                  1000.0000      0.0000    120.0000    875.4332      1.0000      0.1758      0.9500      0.5000      0.9500      0.0500      0.0100           0
Od23-a-3220     D                  1000.0000      0.0000    120.0000    875.4332      1.0000      0.6908      0.9500      0.5000      0.9500      0.0500      0.0100           0
Od23-a-3220     D                  1000.0000      0.0000    120.0000    875.4332      1.0000      0.3314      0.9500      0.5000      0.9500      0.0500      0.0100           0
Od23-a-3220     D                  1000.0000      0.0000    120.0000    875.4332      1.0000      0.3438      0.9500      0.5000      0.9500      0.0500      0.0100           0
Od23-a-3220     D                  1000.0000      0.0000    120.0000    875.4332      1.0000      0.5173      0.9500      0.5000      0.9500      0.0500      0.0100           0
Od23-a-3220     D                  1000.0000      0.0000    120.0000    875.4332      1.0000      0.4099      0.9500      0.5000      0.9500      0.0500      0.0100           0
Od23-a-3220     D                  1000.0000      0.0000    120.0000    875.4332      1.0000      0.9148      0.9500      0.5000      0.9500      0.0500      0.0100           0
Od23-a-3220     D                  1000.0000      0.0000    120.0000    875.4332      1.0000      0.5774      0.9500      0.5000      0.9500      0.0500      0.0100           0
Od23-a-3220     D                  1000.0000      0.0000    120.0000    875.4332      1.0000      0.9854      0.9500      0.5000      0.9500      0.0500      0.0100           0
Od23-a-3220     D                  1000.0000      0.0000    120.0000    875.4332      1.0000      0.3354      0.9500      0.5000      0.9500      0.0500      0.0100           0
Od23-a-3220     D                  1000.0000      0.0000    120.0000    875.4332      1.0000      0.5924      0.9500      0.5000      0.9500      0.0500      0.0100           0
Od23-a-3220     D                  1000.0000      0.0000    120.0000    875.4332      1.0000      0.4793      0.9500      0.5000      0.9500      0.0500      0.0100           0
Od23-a-3220     D                  1000.0000      0.0000    120.0000    875.4332      1.0000      0.1685      0.9500      0.5000      0.9500      0.0500      0.0100           0
Od23-a-3220     D                  1000.0000      0.0000    120.0000    875.4332      1.0000      0.5678      0.9500      0.5000      0.9500      0.0500      0.0100           0
Od23-a-3220     D                  1000.0000      0.0000    120.0000    875.4332      1.0000      0.4365      0.9500      0.5000      0.9500      0.0500      0.0100           0
Od23-a-3220     D                  1000.0000      0.0000    120.0000    875.4332      1.0000      0.6389      0.9500      0.5000      0.9500      0.0500      0.0100           0
Od23-a-3220     D                  1000.0000      0.0000    120.0000    875.4332      1.0000      0.6221      0.9500      0.5000      0.9500      0.0500      0.0100           0
Od23-a-3220     D                  1000.0000      0.0000    120.0000    875.4332      1.0000      0.4064      0.9500      0.5000      0.9500      0.0500      0.0100           0
Od23-a-3220     D                  1000.0000      0.0000    120.0000    875.4332      1.0000      0.4059      0.9500      0.5000      0.9500      0.0500      0.0100           0
Od23-a-3220     D                  1000.0000      0.0000    120.0000    875.4332      1.0000      0.4975      0.9500      0.5000      0.9500      0.0500      0.0100           0
Od23-a-3220     D                  1000.0000      0.0000    120.0000    875.4332      1.0000      0.4155      0.9500      0.5000      0.9500      0.0500      0.0100           0
Od23-a-3220     D                  1000.0000      0.0000    120.0000    875.4332      1.0000      0.4584      0.9500      0.5000      0.9500      0.0500      0.0100           0
Od23-a-3220     D                  1000.0000      0.0000    120.0000    875.4332      1.0000      0.2254      0.9500      0.5000      0.9500      0.0500      0.0100           0
Od23-a-3220     D                  1000.0000      0.0000    120.0000    875.4332      1.0000      0.1079      0.9500      0.5000      0.9500      0.0500      0.0100           0
Po32-1-2a-6610  B                  1000.0000      0.0000     90.0000    602.8438      1.0000      0.6715      0.9500      0.5000      0.9500      0.9000      0.0100           0
Po32-1-2a-6610  B                  1000.0000      0.0000     90.0000    602.8438      1.0000      0.6360      0.9500      0.5000      0.9500      0.9000      0.0100           0
Od23-a-3220     D                  1000.0000      0.0000    120.0000    875.4332      1.0000      0.2001      0.9500      0.5000      0.9500      0.0500      0.0100           0
Od23-a-3220     D                  1000.0000      0.0000    120.0000    875.4332      1.0000      0.4132      0.9500      0.5000      0.9500      0.0500      0.0100           0
Od23-a-3220     D                  1000.0000      0.0000    120.0000    875.4332      1.0000      0.7169      0.9500      0.5000      0.9500      0.0500      0.0100           0
Od23-a-3220     D                  1000.0000      0.0000    120.0000    875.4332      1.0000      0.7414      0.9500      0.5000      0.9500      0.0500      0.0100           0
Od23-a-3220     D                  1000.0000      0.0000    120.0000    875.4332      1.0000      0.4340      0.9500      0.5000      0.9500      0.0500      0.0100           0
Od23-a-3220     D                  1000.0000      0.0000    120.0000    875.4332      1.0000      0.6630      0.9500      0.5000      0.9500      0.0500      0.0100           0
Od23-a-3220     D                  1000.0000      0.0000    120.0000    875.4332      1.0000      0.4246      0.9500      0.5000      0.9500      0.0500      0.0100           0
Od23-a-3220     D                  1000.0000      0.0000    120.0000    875.4332      1.0000      0.5207      0.9500      0.5000      0.9500      0.0500      0.0100           0
Od23-a-3220     D                  1000.0000      0.0000    120.0000    875.4332      1.0000      0.4308      0.9500      0.5000      0.9500      0.0500      0.0100           0
Od23-a-3220     D                  1000.0000      0.0000    120.0000    875.4332      1.0000      0.5570      0.9500      0.5000      0.9500      0.0500      0.0100           0
Od23-a-3220     D                  1000.0000      0.0000    120.0000    875.4332      1.0000      0.5656      0.9500      0.5000      0.9500      0.0500      0.0100           0
Od23-a-3220     D                  1000.0000      0.0000    120.0000    875.4332      1.0000      0.3950      0.9500      0.5000      0.9500      0.0500      0.0100           0
Od23-a-3220     D                  1000.0000      0.0000    120.0000    875.4332      1.0000      0.5472      0.9500      0.5000      0.9500      0.0500      0.0100           0
Od23-a-3220     D                  1000.0000      0.0000    120.0000    875.4332      1.0000      0.8162      0.9500      0.5000      0.9500      0.0500      0.0100           0
Od23-a-3220     D                  1000.0000      0.0000    120.0000    875.4332      1.0000      0.3998      0.9500      0.5000      0.9500      0.0500      0.0100           0
Od23-a-3220     D                  1000.0000      0.0000    120.0000    875.4332      1.0000      0.5545      0.9500      0.5000      0.9500      0.0500      0.0100           0
Od23-a-3220     D                  1000.0000      0.0000    120.0000    875.4332      1.0000      0.2843      0.9500      0.5000      0.9500      0.0500      0.0100           0
Od23-a-3220     D                  1000.0000      0.0000    120.0000    875.4332      1.0000      0.3346      0.9500      0.5000      0.9500      0.0500      0.0100           0
Od23-a-3220     D                  1000.0000      0.0000    120.0000    875.4332      1.0000      0.3747      0.9500      0.5000      0.9500      0.0500      0.0100           0
Od23-a-3220     D                  1000.0000      0.0000    120.0000    875.4332      1.0000      0.2959      0.9500      0.5000      0.9500      0.0500      0.0100           0
Od23-a-3220     D                  1000.0000      0.0000    120.0000    875.4332      1.0000      0.3083      0.9500      0.5000      0.9500      0.0500      0.0100           0
Po32-1-2a-6610  B                  1000.0000      0.0000     90.0000    602.8438      1.0000      0.5492      0.9500      0.5000      0.9500      0.9000      0.0100           0
Po32-1-2a-6610  B                  1000.0000      0.0000     90.0000    602.8438      1.0000      0.4417      0.9500      0.5000      0.9500      0.9000      0.0100           0
Po32-1-2a-6610  B                  1000.0000      0.0000     90.0000    602.8438      1.0000      0.6483      0.9500      0.5000      0.9500      0.9000      0.0100           0
Po32-1-2a-6610  B                  1000.0000      0.0000     90.0000    602.8438      1.0000      0.6166      0.9500      0.5000      0.9500      0.9000      0.0100           0
Od23-a-3220     D                  1000.0000      0.0000    120.0000    875.4332      1.0000      0.7323      0.9500      0.5000      0.9500      0.0500      0.0100           0
Po32-1-2a-6610  B                  1000.0000      0.0000     90.0000    602.8438      1.0000      0.4107      0.9500      0.5000      0.9500      0.9000      0.0100           0
Po32-1-2a-6610  B                  1000.0000      0.0000     90.0000    602.8438      1.0000      0.6886      0.9500      0.5000      0.9500      0.9000      0.0100           0
Po32-1-2a-6610  B                  1000.0000      0.0000     90.0000    602.8438      1.0000      0.5462      0.9500      0.5000      0.9500      0.9000      0.0100           0
Od23-a-3220     D                  1000.0000      0.0000    120.0000    875.4332      1.0000      0.6402      0.9500      0.5000      0.9500      0.0500      0.0100           0
Od23-a-3220     D                  1000.0000      0.0000    120.0000    875.4332      1.0000      0.6935      0.9500      0.5000      0.9500      0.0500      0.0100           0
Od23-a-3220     D                  1000.0000      0.0000    120.0000    875.4332      1.0000      0.6142      0.9500      0.5000      0.9500      0.0500      0.0100           0
Od23-a-3220     D                  1000.0000      0.0000    120.0000    875.4332      1.0000      0.5890      0.9500      0.5000      0.9500      0.0500      0.0100           0
Od23-a-3220     D                  1000.0000      0.0000    120.0000    875.4332      1.0000      0.6137      0.9500      0.5000      0.9500      0.0500      0.0100           0
Od23-a-3220     D                  1000.0000      0.0000    120.0000    875.4332      1.0000      0.4114      0.9500      0.5000      0.9500      0.0500      0.0100           0
Od23-a-3220     D                  1000.0000      0.0000    120.0000    875.4332      1.0000      0.6604      0.9500      0.5000      0.9500      0.0500      0.0100           0
Od23-a-3220     D                  1000.0000      0.0000    120.0000    875.4332      1.0000      0.7243      0.9500      0.5000      0.9500      0.0500      0.0100           0
Od23-a-3220     D                  1000.0000      0.0000    120.0000    875.4332      1.0000      0.5427      0.9500      0.5000      0.9500      0.0500      0.0100           0
Od23-a-3220     D                  1000.0000      0.0000    120.0000    875.4332      1.0000      0.5368      0.9500      0.5000      0.9500      0.0500      0.0100           0
Od23-a-3220     D                  1000.0000      0.0000    120.0000    875.4332      1.0000      0.4489      0.9500      0.5000      0.9500      0.0500      0.0100           0
Od23-a-3220     D                  1000.0000      0.0000    120.0000    875.4332      1.0000      0.6213      0.9500      0.5000      0.9500      0.0500      0.0100           0
Od23-a-3220     D                  1000.0000      0.0000    120.0000    875.4332      1.0000      0.6360      0.9500      0.5000      0.9500      0.0500      0.0100           0
Od23-a-3220     D                  1000.0000      0.0000    120.0000    875.4332      1.0000      0.5808      0.9500      0.5000      0.9500      0.0500      0.0100           0
Od23-a-3220     D                  1000.0000      0.0000    120.0000    875.4332      1.0000      0.7112      0.9500      0.5000      0.9500      0.0500      0.0100           0
Od23-a-3220     D                  1000.0000      0.0000    120.0000    875.4332      1.0000      0.6207      0.9500      0.5000      0.9500      0.0500      0.0100           0
Od23-a-3220     D                  1000.0000      0.0000    120.0000    875.4332      1.0000      0.5706      0.9500      0.5000      0.9500      0.0500      0.0100           0
Od23-a-3220     D                  1000.0000      0.0000    120.0000    875.4332      1.0000      0.7104      0.9500      0.5000      0.9500      0.0500      0.0100           0
Od23-a-3220     D                  1000.0000      0.0000    120.0000    875.4332      1.0000      0.5699      0.9500      0.5000      0.9500      0.0500      0.0100           0
Od23-a-3220     D                  1000.0000      0.0000    120.0000    875.4332      1.0000      0.6981      0.9500      0.5000      0.9500      0.0500      0.0100           0
Od23-a-3220     D                  1000.0000      0.0000    120.0000    875.4332      1.0000      0.5497      0.9500      0.5000      0.9500      0.0500      0.0100           0
Od23-a-3220     D                  1000.0000      0.0000    120.0000    875.4332      1.0000      0.5647      0.9500      0.5000      0.9500      0.0500      0.0100           0
Od23-a-3220     D                  1000.0000      0.0000    120.0000    875.4332      1.0000      0.5739      0.9500      0.5000      0.9500      0.0500      0.0100           0
Od23-a-3220     D                  1000.0000      0.0000    120.0000    875.4332      1.0000      0.7728      0.9500      0.5000      0.9500      0.0500      0.0100           0
Od23-a-3220     D                  1000.0000      0.0000    120.0000    875.4332      1.0000      0.6260      0.9500      0.5000      0.9500      0.0500      0.0100           0
Od23-a-3220     D                  1000.0000      0.0000    120.0000    875.4332      1.0000      0.6216      0.9500      0.5000      0.9500      0.0500      0.0100           0
Od23-a-3220     D                  1000.0000      0.0000    120.0000    875.4332      1.0000      0.5511      0.9500      0.5000      0.9500      0.0500      0.0100           0
Od23-a-3220     D                  1000.0000      0.0000    120.0000    875.4332      1.0000      0.8509      0.9500      0.5000      0.9500      0.0500      0.0100           0
Od23-a-3220     D                  1000.0000      0.0000    120.0000    875.4332      1.0000      0.9089      0.9500      0.5000      0.9500      0.0500      0.0100           0
Od23-a-3220     D                  1000.0000      0.0000    120.0000    875.4332      1.0000      0.3701      0.9500      0.5000      0.9500      0.0500      0.0100           0
Od23-a-3220     D                  1000.0000      0.0000    120.0000    875.4332      1.0000      0.8916      0.9500      0.5000      0.9500      0.0500      0.0100           0
Od23-a-3220     D                  1000.0000      0.0000    120.0000    875.4332      1.0000      0.7212      0.9500      0.5000      0.9500      0.0500      0.0100           0
Od23-a-3220     D                  1000.0000      0.0000    120.0000    875.4332      1.0000      0.6290      0.9500      0.5000      0.9500      0.0500      0.0100           0
Od23-a-3220     D                  1000.0000      0.0000    120.0000    875.4332      1.0000      0.5534      0.9500      0.5000      0.9500      0.0500      0.0100           0
Od23-a-3220     D                  1000.0000      0.0000    120.0000    875.4332      1.0000      0.7583      0.9500      0.5000      0.9500      0.0500      0.0100           0
Od23-a-3220     D                  1000.0000      0.0000    120.0000    875.4332      1.0000      0.4629      0.9500      0.5000      0.9500      0.0500      0.0100           0
Od23-a-3220     D                  1000.0000      0.0000    120.0000    875.4332      1.0000      0.4467      0.9500      0.5000      0.9500      0.0500      0.0100           0
Od23-a-3220     D                  1000.0000      0.0000    120.0000    875.4332      1.0000      0.4701      0.9500      0.5000      0.9500      0.0500      0.0100           0
Po32-1-2a-6610  B                  1000.0000      0.0000     90.0000    602.8438      1.0000      0.5737      0.9500      0.5000      0.9500      0.9000      0.0100           0
Po32-1-2a-6610  B                  1000.0000      0.0000     90.0000    602.8438      1.0000      0.7982      0.9500      0.5000      0.9500      0.9000      0.0100           0
Od23-a-3220     D                  1000.0000      0.0000    120.0000    875.4332      1.0000      0.5588      0.9500      0.5000      0.9500      0.0500      0.0100           0
Od23-a-3220     D                  1000.0000      0.0000    120.0000    875.4332      1.0000      0.5651      0.9500      0.5000      0.9500      0.0500      0.0100           0
Od23-a-3220     D                  1000.0000      0.0000    120.0000    875.4332      1.0000      0.6344      0.9500      0.5000      0.9500      0.0500      0.0100           0
Od23-a-3220     D                  1000.0000      0.0000    120.0000    875.4332      1.0000      0.6923      0.9500      0.5000      0.9500      0.0500      0.0100           0
Od23-a-3220     D                  1000.0000      0.0000    120.0000    875.4332      1.0000      0.7176      0.9500      0.5000      0.9500      0.0500      0.0100           0
Od23-a-3220     D                  1000.0000      0.0000    120.0000    875.4332      1.0000      0.6620      0.9500      0.5000      0.9500      0.0500      0.0100           0
Od23-a-3220     D                  1000.0000      0.0000    120.0000    875.4332      1.0000      0.4428      0.9500      0.5000      0.9500      0.0500      0.0100           0
Od23-a-3220     D                  1000.0000      0.0000    120.0000    875.4332      1.0000      0.6397      0.9500      0.5000      0.9500      0.0500      0.0100           0
Od23-a-3220     D                  1000.0000      0.0000    120.0000    875.4332      1.0000      0.6271      0.9500      0.5000      0.9500      0.0500      0.0100           0
Od23-a-3220     D                  1000.0000      0.0000    120.0000    875.4332      1.0000      0.5328      0.9500      0.5000      0.9500      0.0500      0.0100           0
Od23-a-3220     D                  1000.0000      0.0000    120.0000    875.4332      1.0000      0.6851      0.9500      0.5000      0.9500      0.0500      0.0100           0
Od23-a-3220     D                  1000.0000      0.0000    120.0000    875.4332      1.0000      0.2901      0.9500      0.5000      0.9500      0.0500      0.0100           0
Od23-a-3220     D                  1000.0000      0.0000    120.0000    875.4332      1.0000      0.6014      0.9500      0.5000      0.9500      0.0500      0.0100           0
Od23-a-3220     D                  1000.0000      0.0000    120.0000    875.4332      1.0000      0.3720      0.9500      0.5000      0.9500      0.0500      0.0100           0
Od23-a-3220     D                  1000.0000      0.0000    120.0000    875.4332      1.0000      0.3581      0.9500      0.5000      0.9500      0.0500      0.0100           0
Od23-a-3220     D                  1000.0000      0.0000    120.0000    875.4332      1.0000      0.5519      0.9500      0.5000      0.9500      0.0500      0.0100           0
Od23-a-3220     D                  1000.0000      0.0000    120.0000    875.4332      1.0000      0.4044      0.9500      0.5000      0.9500      0.0500      0.0100           0
Od23-a-3220     D                  1000.0000      0.0000    120.0000    875.4332      1.0000      0.5879      0.9500      0.5000      0.9500      0.0500      0.0100           0
Od23-a-3220     D                  1000.0000      0.0000    120.0000    875.4332      1.0000      0.5604      0.9500      0.5000      0.9500      0.0500      0.0100           0
Od23-a-3220     D                  1000.0000      0.0000    120.0000    875.4332      1.0000      0.5981      0.9500      0.5000      0.9500      0.0500      0.0100           0
Od23-a-3220     D                  1000.0000      0.0000    120.0000    875.4332      1.0000      0.5052      0.9500      0.5000      0.9500      0.0500      0.0100           0
Od23-a-3220     D                  1000.0000      0.0000    120.0000    875.4332      1.0000      0.4090      0.9500      0.5000      0.9500      0.0500      0.0100           0
Od23-a-3220     D                  1000.0000      0.0000    120.0000    875.4332      1.0000      0.2277      0.9500      0.5000      0.9500      0.0500      0.0100           0
Od23-a-3220     D                  1000.0000      0.0000    120.0000    875.4332      1.0000      0.4053      0.9500      0.5000      0.9500      0.0500      0.0100           0
Od23-a-3220     D                  1000.0000      0.0000    120.0000    875.4332      1.0000      0.7714      0.9500      0.5000      0.9500      0.0500      0.0100           0
Od23-a-3220     D                  1000.0000      0.0000    120.0000    875.4332      1.0000      0.6408      0.9500      0.5000      0.9500      0.0500      0.0100           0
Od23-a-3220     D                  1000.0000      0.0000    120.0000    875.4332      1.0000      0.6009      0.9500      0.5000      0.9500      0.0500      0.0100           0
Od23-a-3220     D                  1000.0000      0.0000    120.0000    875.4332      1.0000      0.8795      0.9500      0.5000      0.9500      0.0500      0.0100           0
Od23-a-3220     D                  1000.0000      0.0000    120.0000    875.4332      1.0000      0.7090      0.9500      0.5000      0.9500      0.0500      0.0100           0
Od23-a-3220     D                  1000.0000      0.0000    120.0000    875.4332      1.0000      0.5978      0.9500      0.5000      0.9500      0.0500      0.0100           0
Od23-a-3220     D                  1000.0000      0.0000    120.0000    875.4332      1.0000      0.6111      0.9500      0.5000      0.9500      0.0500      0.0100           0
Od23-a-3220     D                  1000.0000      0.0000    120.0000    875.4332      1.0000      0.5609      0.9500      0.5000      0.9500      0.0500      0.0100           0
Od23-a-3220     D                  1000.0000      0.0000    120.0000    875.4332      1.0000      0.5094      0.9500      0.5000      0.9500      0.0500      0.0100           0
Od23-a-3220     D                  1000.0000      0.0000    120.0000    875.4332      1.0000      0.6747      0.9500      0.5000      0.9500      0.0500      0.0100           0
Od23-a-3220     D                  1000.0000      0.0000    120.0000    875.4332      1.0000      0.9849      0.9500      0.5000      0.9500      0.0500      0.0100           0
Od23-a-3220     D                  1000.0000      0.0000    120.0000    875.4332      1.0000      0.6453      0.9500      0.5000      0.9500      0.0500      0.0100           0
Od23-a-3220     D                  1000.0000      0.0000    120.0000    875.4332      1.0000      0.4042      0.9500      0.5000      0.9500      0.0500      0.0100           0
Od23-a-3220     D                  1000.0000      0.0000    120.0000    875.4332      1.0000      0.2379      0.9500      0.5000      0.9500      0.0500      0.0100           0
Od23-a-3220     D                  1000.0000      0.0000    120.0000    875.4332      1.0000      0.4585      0.9500      0.5000      0.9500      0.0500      0.0100           0
Od23-a-3220     D                  1000.0000      0.0000    120.0000    875.4332      1.0000      0.6078      0.9500      0.5000      0.9500      0.0500      0.0100           0
Od23-a-3220     D                  1000.0000      0.0000    120.0000    875.4332      1.0000      0.4110      0.9500      0.5000      0.9500      0.0500      0.0100           0
Od23-a-3220     D                  1000.0000      0.0000    120.0000    875.4332      1.0000      0.5764      0.9500      0.5000      0.9500      0.0500      0.0100           0
Od23-a-3220     D                  1000.0000      0.0000    120.0000    875.4332      1.0000      0.3998      0.9500      0.5000      0.9500      0.0500      0.0100           0
Od23-a-3220     D                  1000.0000      0.0000    120.0000    875.4332      1.0000      0.0695      0.9500      0.5000      0.9500      0.0500      0.0100           0
Od23-a-3220     D                  1000.0000      0.0000    120.0000    875.4332      1.0000      0.0800      0.9500      0.5000      0.9500      0.0500      0.0100           0
Od23-a-3220     D                  1000.0000      0.0000    120.0000    875.4332      1.0000      0.2829      0.9500      0.5000      0.9500      0.0500      0.0100           0
Od23-a-3220     D                  1000.0000      0.0000    120.0000    875.4332      1.0000      0.3055      0.9500      0.5000      0.9500      0.0500      0.0100           0
Od23-a-3220     D                  1000.0000      0.0000    120.0000    875.4332      1.0000      0.2215      0.9500      0.5000      0.9500      0.0500      0.0100           0
Od23-a-3220     D                  1000.0000      0.0000    120.0000    875.4332      1.0000      0.3595      0.9500      0.5000      0.9500      0.0500      0.0100           0
Od23-a-3220     D                  1000.0000      0.0000    120.0000    875.4332      1.0000      0.4223      0.9500      0.5000      0.9500      0.0500      0.0100           0
Od23-a-3220     D                  1000.0000      0.0000    120.0000    875.4332      1.0000      0.7296      0.9500      0.5000      0.9500      0.0500      0.0100           0
Od23-a-3220     D                  1000.0000      0.0000    120.0000    875.4332      1.0000      0.6757      0.9500      0.5000      0.9500      0.0500      0.0100           0
Od23-a-3220     D                  1000.0000      0.0000    120.0000    875.4332      1.0000      0.3866      0.9500      0.5000      0.9500      0.0500      0.0100           0
Od23-a-3220     D                  1000.0000      0.0000    120.0000    875.4332      1.0000      0.3206      0.9500      0.5000      0.9500      0.0500      0.0100           0
Od23-a-3220     D                  1000.0000      0.0000    120.0000    875.4332      1.0000      0.5881      0.9500      0.5000      0.9500      0.0500      0.0100           0
Od23-a-3220     D                  1000.0000      0.0000    120.0000    875.4332      1.0000      0.3852      0.9500      0.5000      0.9500      0.0500      0.0100           0
Od23-a-3220     D                  1000.0000      0.0000    120.0000    875.4332      1.0000      0.4030      0.9500      0.5000      0.9500      0.0500      0.0100           0
Od23-a-3220     D                  1000.0000      0.0000    120.0000    875.4332      1.0000      0.9958      0.9500      0.5000      0.9500      0.0500      0.0100           0
Od23-a-3220     D                  1000.0000      0.0000    120.0000    875.4332      1.0000      0.3031      0.9500      0.5000      0.9500      0.0500      0.0100           0
Od23-a-3220     D                  1000.0000      0.0000    120.0000    875.4332      1.0000      0.6809      0.9500      0.5000      0.9500      0.0500      0.0100           0
Od23-a-3220     D                  1000.0000      0.0000    120.0000    875.4332      1.0000      0.6058      0.9500      0.5000      0.9500      0.0500      0.0100           0
Od23-a-3220     D                  1000.0000      0.0000    120.0000    875.4332      1.0000      0.8029      0.9500      0.5000      0.9500      0.0500      0.0100           0
Od23-a-3220     D                  1000.0000      0.0000    120.0000    875.4332      1.0000      0.5717      0.9500      0.5000      0.9500      0.0500      0.0100           0
Od23-a-3220     D                  1000.0000      0.0000    120.0000    875.4332      1.0000      0.6807      0.9500      0.5000      0.9500      0.0500      0.0100           0
Od23-a-3220     D                  1000.0000      0.0000    120.0000    875.4332      1.0000      0.5858      0.9500      0.5000      0.9500      0.0500      0.0100           0
Po32-1-2a-6610  B                  1000.0000      0.0000     90.0000    602.8438      1.0000      0.7639      0.9500      0.5000      0.9500      0.9000      0.0100           0
Po32-1-2a-6610  B                  1000.0000      0.0000     90.0000    602.8438      1.0000      0.4073      0.9500      0.5000      0.9500      0.9000      0.0100           0
Po32-1-2a-6610  B                  1000.0000      0.0000     90.0000    602.8438      1.0000      0.3868      0.9500      0.5000      0.9500      0.9000      0.0100           0
Po32-1-2a-6610  B                  1000.0000      0.0000     90.0000    602.8438      1.0000      0.4574      0.9500      0.5000      0.9500      0.9000      0.0100           0
Po32-1-2a-6610  B                  1000.0000      0.0000     90.0000    602.8438      1.0000      0.2685      0.9500      0.5000      0.9500      0.9000      0.0100           0
Od23-a-3220     D                  1000.0000      0.0000    120.0000    875.4332      1.0000      0.6190      0.9500      0.5000      0.9500      0.0500      0.0100           0
Od23-a-3220     D                  1000.0000      0.0000    120.0000    875.4332      1.0000      0.5606      0.9500      0.5000      0.9500      0.0500      0.0100           0
Od23-a-3220     D                  1000.0000      0.0000    120.0000    875.4332      1.0000      0.5090      0.9500      0.5000      0.9500      0.0500      0.0100           0
Od23-a-3220     D                  1000.0000      0.0000    120.0000    875.4332      1.0000      0.5150      0.9500      0.5000      0.9500      0.0500      0.0100           0
Od23-a-3220     D                  1000.0000      0.0000    120.0000    875.4332      1.0000      0.3768      0.9500      0.5000      0.9500      0.0500      0.0100           0
Od23-a-3220     D                  1000.0000      0.0000    120.0000    875.4332      1.0000      0.6997      0.9500      0.5000      0.9500      0.0500      0.0100           0
Od23-a-3220     D                  1000.0000      0.0000    120.0000    875.4332      1.0000      0.5621      0.9500      0.5000      0.9500      0.0500      0.0100           0
Od23-a-3220     D                  1000.0000      0.0000    120.0000    875.4332      1.0000      0.9822      0.9500      0.5000      0.9500      0.0500      0.0100           0
Od23-a-3220     D                  1000.0000      0.0000    120.0000    875.4332      1.0000      0.7255      0.9500      0.5000      0.9500      0.0500      0.0100           0
Od23-a-3220     D                  1000.0000      0.0000    120.0000    875.4332      1.0000      0.6783      0.9500      0.5000      0.9500      0.0500      0.0100           0
Od23-a-3220     D                  1000.0000      0.0000    120.0000    875.4332      1.0000      1.0475      0.9500      0.5000      0.9500      0.0500      0.0100           0
Od23-a-3220     D                  1000.0000      0.0000    120.0000    875.4332      1.0000      0.5422      0.9500      0.5000      0.9500      0.0500      0.0100           0
Od23-a-3220     D                  1000.0000      0.0000    120.0000    875.4332      1.0000      0.6606      0.9500      0.5000      0.9500      0.0500      0.0100           0
Od23-a-3220     D                  1000.0000      0.0000    120.0000    875.4332      1.0000      0.4384      0.9500      0.5000      0.9500      0.0500      0.0100           0
Od23-a-3220     D                  1000.0000      0.0000    120.0000    875.4332      1.0000      1.0023      0.9500      0.5000      0.9500      0.0500      0.0100           0
Od23-a-3220     D                  1000.0000      0.0000    120.0000    875.4332      1.0000      0.5807      0.9500      0.5000      0.9500      0.0500      0.0100           0
Od23-a-3220     D                  1000.0000      0.0000    120.0000    875.4332      1.0000      0.6351      0.9500      0.5000      0.9500      0.0500      0.0100           0
Od23-a-3220     D                  1000.0000      0.0000    120.0000    875.4332      1.0000      0.6813      0.9500      0.5000      0.9500      0.0500      0.0100           0
Od23-a-3220     D                  1000.0000      0.0000    120.0000    875.4332      1.0000      0.9099      0.9500      0.5000      0.9500      0.0500      0.0100           0
Od23-a-3220     D                  1000.0000      0.0000    120.0000    875.4332      1.0000      0.9936      0.9500      0.5000      0.9500      0.0500      0.0100           0
Od23-a-3220     D                  1000.0000      0.0000    120.0000    875.4332      1.0000      0.9284      0.9500      0.5000      0.9500      0.0500      0.0100           0
Od23-a-3220     D                  1000.0000      0.0000    120.0000    875.4332      1.0000      0.7897      0.9500      0.5000      0.9500      0.0500      0.0100           0
Po32-1-2a-6610  B                  1000.0000      0.0000     90.0000    602.8438      1.0000      0.5422      0.9500      0.5000      0.9500      0.9000      0.0100           0
Po32-1-2a-6610  B                  1000.0000      0.0000     90.0000    602.8438      1.0000      0.5955      0.9500      0.5000      0.9500      0.9000      0.0100           0
Od23-a-3220     D                  1000.0000      0.0000    120.0000    875.4332      1.0000      0.6448      0.9500      0.5000      0.9500      0.0500      0.0100           0
Od23-a-3220     D                  1000.0000      0.0000    120.0000    875.4332      1.0000      0.6581      0.9500      0.5000      0.9500      0.0500      0.0100           0
Po32-1-2a-6610  B                  1000.0000      0.0000     90.0000    602.8438      1.0000      0.8569      0.9500      0.5000      0.9500      0.9000      0.0100           0
Po32-1-2a-6610  B                  1000.0000      0.0000     90.0000    602.8438      1.0000      0.6778      0.9500      0.5000      0.9500      0.9000      0.0100           0
Od23-a-3220     D                  1000.0000      0.0000    120.0000    875.4332      1.0000      0.7953      0.9500      0.5000      0.9500      0.0500      0.0100           0
Od23-a-3220     D                  1000.0000      0.0000    120.0000    875.4332      1.0000      1.4384      0.9500      0.5000      0.9500      0.0500      0.0100           0
Po32-1-2a-6610  B                  1000.0000      0.0000     90.0000    602.8438      1.0000      0.9527      0.9500      0.5000      0.9500      0.9000      0.0100           0
Od23-a-3220     D                  1000.0000      0.0000    120.0000    875.4332      1.0000      0.6612      0.9500      0.5000      0.9500      0.0500      0.0100           0
Od23-a-3220     D                  1000.0000      0.0000    120.0000    875.4332      1.0000      0.5738      0.9500      0.5000      0.9500      0.0500      0.0100           0
Od23-a-3220     D                  1000.0000      0.0000    120.0000    875.4332      1.0000      0.9008      0.9500      0.5000      0.9500      0.0500      0.0100           0
Od23-a-3220     D                  1000.0000      0.0000    120.0000    875.4332      1.0000      0.1526      0.9500      0.5000      0.9500      0.0500      0.0100           0
Od23-a-3220     D                  1000.0000      0.0000    120.0000    875.4332      1.0000      0.7356      0.9500      0.5000      0.9500      0.0500      0.0100           0
Od23-a-3220     D                  1000.0000      0.0000    120.0000    875.4332      1.0000      0.8807      0.9500      0.5000      0.9500      0.0500      0.0100           0
Od23-a-3220     D                  1000.0000      0.0000    120.0000    875.4332      1.0000      0.5496      0.9500      0.5000      0.9500      0.0500      0.0100           0
Od23-a-3220     D                  1000.0000      0.0000    120.0000    875.4332      1.0000      0.9082      0.9500      0.5000      0.9500      0.0500      0.0100           0
Od23-a-3220     D                  1000.0000      0.0000    120.0000    875.4332      1.0000      1.3294      0.9500      0.5000      0.9500      0.0500      0.0100           0
