print.prt: written by SWAT+ editor v3.0.8 on 2025-07-29 21:28 for SWAT+ rev.61.0.1
nyskip      day_start  yrc_start  day_end   yrc_end   interval  
1            0           0           0          0          1          
aa_int_cnt  
0           
csvout        dbout         cdfout        
y             n             n             
crop_yld      mgtout        hydcon        fdcout        
b             n             n             n             
objects                  daily       monthly        yearly         avann  
basin_wb                     y             y             n             n
basin_nb                     y             y             n             n
basin_ls                     y             y             n             n
basin_pw                     y             y             n             n
basin_aqu                    y             y             n             n
basin_res                    y             y             n             n
basin_cha                    y             y             n             n
basin_sd_cha                 y             y             n             n
basin_psc                    y             y             n             n
region_wb                    y             y             n             n
region_nb                    y             y             n             n
region_ls                    y             y             n             n
region_pw                    y             y             n             n
region_aqu                   y             y             n             n
region_res                   y             y             n             n
region_sd_cha                y             y             n             n
region_psc                   y             y             n             n
water_allo                   y             y             n             n
lsunit_wb                    y             y             n             n
lsunit_nb                    y             y             n             n
lsunit_ls                    y             y             n             n
lsunit_pw                    y             y             n             n
hru_wb                       y             y             n             n
hru_nb                       y             y             n             n
hru_ls                       y             y             n             n
hru_pw                       y             y             n             n
hru-lte_wb                   y             y             n             n
hru-lte_nb                   y             y             n             n
hru-lte_ls                   y             y             n             n
hru-lte_pw                   y             y             n             n
channel                      y             y             n             n
channel_sd                   y             y             n             n
aquifer                      y             y             n             n
reservoir                    y             y             n             n
recall                       y             y             n             n
hyd                          y             y             n             n
ru                           y             y             n             n
pest                         y             y             n             n
basin_salt                   y             y             n             n
hru_salt                     y             y             n             n
ru_salt                      y             y             n             n
aqu_salt                     y             y             n             n
channel_salt                 y             y             n             n
res_salt                     y             y             n             n
wetland_salt                 y             y             n             n
basin_cs                     y             y             n             n
hru_cs                       y             y             n             n
ru_cs                        y             y             n             n
aqu_cs                       y             y             n             n
channel_cs                   y             y             n             n
res_cs                       y             y             n             n
wetland_cs                   y             y             n             n
basin_salt                   y             y             n             n
hru_salt                     y             y             n             n
ru_salt                      y             y             n             n
aqu_salt                     y             y             n             n
channel_salt                 y             y             n             n
res_salt                     y             y             n             n
wetland_salt                 y             y             n             n
basin_cs                     y             y             n             n
hru_cs                       y             y             n             n
ru_cs                        y             y             n             n
aqu_cs                       y             y             n             n
channel_cs                   y             y             n             n
res_cs                       y             y             n             n
wetland_cs                   y             y             n             n
basin_salt                   y             y             n             n
hru_salt                     y             y             n             n
ru_salt                      y             y             n             n
aqu_salt                     y             y             n             n
channel_salt                 y             y             n             n
res_salt                     y             y             n             n
wetland_salt                 y             y             n             n
basin_cs                     y             y             n             n
hru_cs                       y             y             n             n
ru_cs                        y             y             n             n
aqu_cs                       y             y             n             n
channel_cs                   y             y             n             n
res_cs                       y             y             n             n
wetland_cs                   y             y             n             n
my_custom_obj                y             y             n             n
